<?xml version="1.0" encoding="UTF-8"?>
	<nodes xmlns:xsi="http://www.w3.org/2001/XMLSchema-instance" xsi:noNamespaceSchemaLocation="Data/GridNetwork/GridNetwork.nod.xml">
	
		<node id="nod_0_1" x="-500.000000" y="750.000000" type="priority"		/>
		<node id="nod_0_2" x="-250.000000" y="750.000000" type="priority"		/>
		<node id="nod_0_3" x="0.000000" y="750.000000" type="priority"		/>
		<node id="nod_0_4" x="250.000000" y="750.000000" type="priority"		/>
		<node id="nod_0_5" x="500.000000" y="750.000000" type="priority"		/>
		<node id="nod_1_0" x="-750.000000" y="500.000000" type="priority"		/>
		<node id="nod_1_1" x="-500.000000" y="500.000000" type="traffic_light"		/>
		<node id="nod_1_2" x="-250.000000" y="500.000000" type="traffic_light"		/>
		<node id="nod_1_3" x="0.000000" y="500.000000" type="traffic_light"		/>
		<node id="nod_1_4" x="250.000000" y="500.000000" type="traffic_light"		/>
		<node id="nod_1_5" x="500.000000" y="500.000000" type="traffic_light"		/>
		<node id="nod_1_6" x="750.000000" y="500.000000" type="priority"		/>
		<node id="nod_2_0" x="-750.000000" y="250.000000" type="priority"		/>
		<node id="nod_2_1" x="-500.000000" y="250.000000" type="traffic_light"		/>
		<node id="nod_2_2" x="-250.000000" y="250.000000" type="traffic_light"		/>
		<node id="nod_2_3" x="0.000000" y="250.000000" type="traffic_light"		/>
		<node id="nod_2_4" x="250.000000" y="250.000000" type="traffic_light"		/>
		<node id="nod_2_5" x="500.000000" y="250.000000" type="traffic_light"		/>
		<node id="nod_2_6" x="750.000000" y="250.000000" type="priority"		/>
		<node id="nod_3_0" x="-750.000000" y="0.000000" type="priority"		/>
		<node id="nod_3_1" x="-500.000000" y="0.000000" type="traffic_light"		/>
		<node id="nod_3_2" x="-250.000000" y="0.000000" type="traffic_light"		/>
		<node id="nod_3_3" x="0.000000" y="0.000000" type="traffic_light"		/>
		<node id="nod_3_4" x="250.000000" y="0.000000" type="traffic_light"		/>
		<node id="nod_3_5" x="500.000000" y="0.000000" type="traffic_light"		/>
		<node id="nod_3_6" x="750.000000" y="0.000000" type="priority"		/>
		<node id="nod_4_0" x="-750.000000" y="-250.000000" type="priority"		/>
		<node id="nod_4_1" x="-500.000000" y="-250.000000" type="traffic_light"		/>
		<node id="nod_4_2" x="-250.000000" y="-250.000000" type="traffic_light"		/>
		<node id="nod_4_3" x="0.000000" y="-250.000000" type="traffic_light"		/>
		<node id="nod_4_4" x="250.000000" y="-250.000000" type="traffic_light"		/>
		<node id="nod_4_5" x="500.000000" y="-250.000000" type="traffic_light"		/>
		<node id="nod_4_6" x="750.000000" y="-250.000000" type="priority"		/>
		<node id="nod_5_0" x="-750.000000" y="-500.000000" type="priority"		/>
		<node id="nod_5_1" x="-500.000000" y="-500.000000" type="traffic_light"		/>
		<node id="nod_5_2" x="-250.000000" y="-500.000000" type="traffic_light"		/>
		<node id="nod_5_3" x="0.000000" y="-500.000000" type="traffic_light"		/>
		<node id="nod_5_4" x="250.000000" y="-500.000000" type="traffic_light"		/>
		<node id="nod_5_5" x="500.000000" y="-500.000000" type="traffic_light"		/>
		<node id="nod_5_6" x="750.000000" y="-500.000000" type="priority"		/>
		<node id="nod_6_1" x="-500.000000" y="-750.000000" type="priority"		/>
		<node id="nod_6_2" x="-250.000000" y="-750.000000" type="priority"		/>
		<node id="nod_6_3" x="0.000000" y="-750.000000" type="priority"		/>
		<node id="nod_6_4" x="250.000000" y="-750.000000" type="priority"		/>
		<node id="nod_6_5" x="500.000000" y="-750.000000" type="priority"		/>
</nodes>
