<?xml version="1.0" encoding="UTF-8"?>

<!-- generated on Mon Nov 18 17:31:30 2013 by SUMO netconvert Version 0.17.0
<?xml version="1.0" encoding="UTF-8"?>

<configuration xmlns:xsi="http://www.w3.org/2001/XMLSchema-instance" xsi:noNamespaceSchemaLocation="http://sumo.sf.net/xsd/netconvertConfiguration.xsd">

    <input>
        <node-files value="Data/GridNetwork/GridNetwork.nod.xml"/>
        <edge-files value="Data/GridNetwork/GridNetwork.edg.xml"/>
        <type-files value="Data/GridNetwork/GridNetwork.typ.xml"/>
    </input>

    <output>
        <output-file value="Data/GridNetwork/GridNetwork.net.xml"/>
    </output>

    <report>
        <verbose value="true"/>
    </report>

</configuration>
-->

<net version="0.13" xmlns:xsi="http://www.w3.org/2001/XMLSchema-instance" xsi:noNamespaceSchemaLocation="http://sumo.sf.net/xsd/net_file.xsd">

    <location netOffset="1000.00,1000.00" convBoundary="0.00,0.00,2000.00,2000.00" origBoundary="-1000.00,-1000.00,1000.00,1000.00" projParameter="!"/>

    <edge id=":nod_0_1_0" function="internal">
        <lane id=":nod_0_1_0_0" index="0" speed="13.89" length="4.89" shape="501.68,2000.00 500.84,2001.26 500.00,2001.67 499.16,2001.26 498.32,2000.00"/>
    </edge>
    <edge id=":nod_0_2_0" function="internal">
        <lane id=":nod_0_2_0_0" index="0" speed="13.89" length="4.89" shape="1001.67,2000.00 1000.84,2001.26 1000.00,2001.67 999.16,2001.26 998.33,2000.00"/>
    </edge>
    <edge id=":nod_0_3_0" function="internal">
        <lane id=":nod_0_3_0_0" index="0" speed="13.89" length="4.89" shape="1501.67,2000.00 1500.84,2001.26 1500.00,2001.67 1499.16,2001.26 1498.33,2000.00"/>
    </edge>
    <edge id=":nod_1_0_0" function="internal">
        <lane id=":nod_1_0_0_0" index="0" speed="13.89" length="4.89" shape="0.00,1501.67 -1.26,1500.84 -1.67,1500.00 -1.26,1499.16 0.00,1498.33"/>
    </edge>
    <edge id=":nod_1_1_0" function="internal">
        <lane id=":nod_1_1_0_0" index="0" speed="13.89" length="5.00" shape="494.98,1508.12 494.78,1506.77 494.20,1505.80 493.23,1505.22 491.88,1505.03"/>
    </edge>
    <edge id=":nod_1_1_1" function="internal">
        <lane id=":nod_1_1_1_0" index="0" speed="13.89" length="16.25" shape="494.98,1508.12 494.98,1503.30 494.98,1500.00 494.98,1496.70 494.98,1491.88"/>
    </edge>
    <edge id=":nod_1_1_2" function="internal">
        <lane id=":nod_1_1_2_0" index="0" speed="13.89" length="16.25" shape="498.32,1508.12 498.32,1503.30 498.32,1500.00 498.33,1496.70 498.32,1491.88"/>
    </edge>
    <edge id=":nod_1_1_3" function="internal">
        <lane id=":nod_1_1_3_0" index="0" speed="13.89" length="6.85" shape="498.32,1508.12 498.94,1503.84 500.24,1501.67"/>
    </edge>
    <edge id=":nod_1_1_18" function="internal">
        <lane id=":nod_1_1_18_0" index="0" speed="13.89" length="8.95" shape="500.24,1501.67 500.77,1500.77 503.84,1498.94 508.12,1498.33"/>
    </edge>
    <edge id=":nod_1_1_4" function="internal">
        <lane id=":nod_1_1_4_0" index="0" speed="13.89" length="2.45" shape="498.32,1508.12 499.16,1506.87 500.00,1506.45"/>
    </edge>
    <edge id=":nod_1_1_19" function="internal">
        <lane id=":nod_1_1_19_0" index="0" speed="13.89" length="2.45" shape="500.00,1506.45 500.84,1506.87 501.68,1508.12"/>
    </edge>
    <edge id=":nod_1_1_5" function="internal">
        <lane id=":nod_1_1_5_0" index="0" speed="13.89" length="5.00" shape="508.12,1505.03 506.77,1505.22 505.80,1505.80 505.22,1506.77 505.02,1508.12"/>
    </edge>
    <edge id=":nod_1_1_6" function="internal">
        <lane id=":nod_1_1_6_0" index="0" speed="13.89" length="16.25" shape="508.12,1501.67 503.30,1501.67 500.00,1501.67 496.70,1501.67 491.88,1501.67"/>
    </edge>
    <edge id=":nod_1_1_7" function="internal">
        <lane id=":nod_1_1_7_0" index="0" speed="13.89" length="3.13" shape="508.12,1501.67 505.02,1501.23"/>
    </edge>
    <edge id=":nod_1_1_20" function="internal">
        <lane id=":nod_1_1_20_0" index="0" speed="13.89" length="12.67" shape="505.02,1501.23 503.84,1501.06 500.78,1499.22 498.94,1496.16 498.32,1491.88"/>
    </edge>
    <edge id=":nod_1_1_8" function="internal">
        <lane id=":nod_1_1_8_0" index="0" speed="13.89" length="2.45" shape="508.12,1501.67 506.87,1500.84 506.45,1500.00"/>
    </edge>
    <edge id=":nod_1_1_21" function="internal">
        <lane id=":nod_1_1_21_0" index="0" speed="13.89" length="2.45" shape="506.45,1500.00 506.87,1499.16 508.12,1498.33"/>
    </edge>
    <edge id=":nod_1_1_9" function="internal">
        <lane id=":nod_1_1_9_0" index="0" speed="13.89" length="5.00" shape="505.02,1491.88 505.22,1493.23 505.80,1494.20 506.77,1494.78 508.12,1494.97"/>
    </edge>
    <edge id=":nod_1_1_10" function="internal">
        <lane id=":nod_1_1_10_0" index="0" speed="13.89" length="16.25" shape="505.02,1491.88 505.02,1496.70 505.02,1500.00 505.02,1503.30 505.02,1508.12"/>
    </edge>
    <edge id=":nod_1_1_11" function="internal">
        <lane id=":nod_1_1_11_0" index="0" speed="13.89" length="16.25" shape="501.68,1491.88 501.68,1496.70 501.68,1500.00 501.67,1503.30 501.68,1508.12"/>
    </edge>
    <edge id=":nod_1_1_12" function="internal">
        <lane id=":nod_1_1_12_0" index="0" speed="13.89" length="6.85" shape="501.68,1491.88 501.06,1496.16 499.76,1498.33"/>
    </edge>
    <edge id=":nod_1_1_22" function="internal">
        <lane id=":nod_1_1_22_0" index="0" speed="13.89" length="8.95" shape="499.76,1498.33 499.23,1499.23 496.16,1501.06 491.88,1501.67"/>
    </edge>
    <edge id=":nod_1_1_13" function="internal">
        <lane id=":nod_1_1_13_0" index="0" speed="13.89" length="2.45" shape="501.68,1491.88 500.84,1493.13 500.00,1493.55"/>
    </edge>
    <edge id=":nod_1_1_23" function="internal">
        <lane id=":nod_1_1_23_0" index="0" speed="13.89" length="2.45" shape="500.00,1493.55 499.16,1493.13 498.32,1491.88"/>
    </edge>
    <edge id=":nod_1_1_14" function="internal">
        <lane id=":nod_1_1_14_0" index="0" speed="13.89" length="5.00" shape="491.88,1494.97 493.23,1494.78 494.20,1494.20 494.78,1493.23 494.98,1491.88"/>
    </edge>
    <edge id=":nod_1_1_15" function="internal">
        <lane id=":nod_1_1_15_0" index="0" speed="13.89" length="16.25" shape="491.88,1498.33 496.70,1498.33 500.00,1498.33 503.30,1498.33 508.12,1498.33"/>
    </edge>
    <edge id=":nod_1_1_16" function="internal">
        <lane id=":nod_1_1_16_0" index="0" speed="13.89" length="3.13" shape="491.88,1498.33 494.98,1498.77"/>
    </edge>
    <edge id=":nod_1_1_24" function="internal">
        <lane id=":nod_1_1_24_0" index="0" speed="13.89" length="12.67" shape="494.98,1498.77 496.16,1498.94 499.22,1500.78 501.06,1503.84 501.68,1508.12"/>
    </edge>
    <edge id=":nod_1_1_17" function="internal">
        <lane id=":nod_1_1_17_0" index="0" speed="13.89" length="2.45" shape="491.88,1498.33 493.13,1499.16 493.55,1500.00"/>
    </edge>
    <edge id=":nod_1_1_25" function="internal">
        <lane id=":nod_1_1_25_0" index="0" speed="13.89" length="2.45" shape="493.55,1500.00 493.13,1500.84 491.88,1501.67"/>
    </edge>
    <edge id=":nod_1_2_0" function="internal">
        <lane id=":nod_1_2_0_0" index="0" speed="13.89" length="5.00" shape="994.98,1508.12 994.78,1506.77 994.20,1505.80 993.23,1505.22 991.88,1505.03"/>
    </edge>
    <edge id=":nod_1_2_1" function="internal">
        <lane id=":nod_1_2_1_0" index="0" speed="13.89" length="16.25" shape="994.98,1508.12 994.98,1503.30 994.98,1500.00 994.97,1496.70 994.98,1491.88"/>
    </edge>
    <edge id=":nod_1_2_2" function="internal">
        <lane id=":nod_1_2_2_0" index="0" speed="13.89" length="16.25" shape="998.33,1508.12 998.33,1503.30 998.33,1500.00 998.33,1496.70 998.33,1491.88"/>
    </edge>
    <edge id=":nod_1_2_3" function="internal">
        <lane id=":nod_1_2_3_0" index="0" speed="13.89" length="6.85" shape="998.33,1508.12 998.94,1503.84 1000.24,1501.67"/>
    </edge>
    <edge id=":nod_1_2_18" function="internal">
        <lane id=":nod_1_2_18_0" index="0" speed="13.89" length="8.95" shape="1000.24,1501.67 1000.78,1500.77 1003.84,1498.94 1008.12,1498.33"/>
    </edge>
    <edge id=":nod_1_2_4" function="internal">
        <lane id=":nod_1_2_4_0" index="0" speed="13.89" length="2.45" shape="998.33,1508.12 999.16,1506.87 1000.00,1506.45"/>
    </edge>
    <edge id=":nod_1_2_19" function="internal">
        <lane id=":nod_1_2_19_0" index="0" speed="13.89" length="2.45" shape="1000.00,1506.45 1000.84,1506.87 1001.67,1508.12"/>
    </edge>
    <edge id=":nod_1_2_5" function="internal">
        <lane id=":nod_1_2_5_0" index="0" speed="13.89" length="5.00" shape="1008.12,1505.03 1006.77,1505.22 1005.80,1505.80 1005.22,1506.77 1005.02,1508.12"/>
    </edge>
    <edge id=":nod_1_2_6" function="internal">
        <lane id=":nod_1_2_6_0" index="0" speed="13.89" length="16.25" shape="1008.12,1501.67 1003.30,1501.67 1000.00,1501.67 996.70,1501.67 991.88,1501.67"/>
    </edge>
    <edge id=":nod_1_2_7" function="internal">
        <lane id=":nod_1_2_7_0" index="0" speed="13.89" length="3.13" shape="1008.12,1501.67 1005.02,1501.23"/>
    </edge>
    <edge id=":nod_1_2_20" function="internal">
        <lane id=":nod_1_2_20_0" index="0" speed="13.89" length="12.67" shape="1005.02,1501.23 1003.84,1501.06 1000.78,1499.22 998.94,1496.16 998.33,1491.88"/>
    </edge>
    <edge id=":nod_1_2_8" function="internal">
        <lane id=":nod_1_2_8_0" index="0" speed="13.89" length="2.45" shape="1008.12,1501.67 1006.87,1500.84 1006.45,1500.00"/>
    </edge>
    <edge id=":nod_1_2_21" function="internal">
        <lane id=":nod_1_2_21_0" index="0" speed="13.89" length="2.45" shape="1006.45,1500.00 1006.87,1499.16 1008.12,1498.33"/>
    </edge>
    <edge id=":nod_1_2_9" function="internal">
        <lane id=":nod_1_2_9_0" index="0" speed="13.89" length="5.00" shape="1005.02,1491.88 1005.22,1493.23 1005.80,1494.20 1006.77,1494.78 1008.12,1494.97"/>
    </edge>
    <edge id=":nod_1_2_10" function="internal">
        <lane id=":nod_1_2_10_0" index="0" speed="13.89" length="16.25" shape="1005.02,1491.88 1005.02,1496.70 1005.02,1500.00 1005.03,1503.30 1005.02,1508.12"/>
    </edge>
    <edge id=":nod_1_2_11" function="internal">
        <lane id=":nod_1_2_11_0" index="0" speed="13.89" length="16.25" shape="1001.67,1491.88 1001.67,1496.70 1001.67,1500.00 1001.67,1503.30 1001.67,1508.12"/>
    </edge>
    <edge id=":nod_1_2_12" function="internal">
        <lane id=":nod_1_2_12_0" index="0" speed="13.89" length="6.85" shape="1001.67,1491.88 1001.06,1496.16 999.76,1498.33"/>
    </edge>
    <edge id=":nod_1_2_22" function="internal">
        <lane id=":nod_1_2_22_0" index="0" speed="13.89" length="8.95" shape="999.76,1498.33 999.22,1499.23 996.16,1501.06 991.88,1501.67"/>
    </edge>
    <edge id=":nod_1_2_13" function="internal">
        <lane id=":nod_1_2_13_0" index="0" speed="13.89" length="2.45" shape="1001.67,1491.88 1000.84,1493.13 1000.00,1493.55"/>
    </edge>
    <edge id=":nod_1_2_23" function="internal">
        <lane id=":nod_1_2_23_0" index="0" speed="13.89" length="2.45" shape="1000.00,1493.55 999.16,1493.13 998.33,1491.88"/>
    </edge>
    <edge id=":nod_1_2_14" function="internal">
        <lane id=":nod_1_2_14_0" index="0" speed="13.89" length="5.00" shape="991.88,1494.97 993.23,1494.78 994.20,1494.20 994.78,1493.23 994.98,1491.88"/>
    </edge>
    <edge id=":nod_1_2_15" function="internal">
        <lane id=":nod_1_2_15_0" index="0" speed="13.89" length="16.25" shape="991.88,1498.33 996.70,1498.33 1000.00,1498.33 1003.30,1498.33 1008.12,1498.33"/>
    </edge>
    <edge id=":nod_1_2_16" function="internal">
        <lane id=":nod_1_2_16_0" index="0" speed="13.89" length="3.13" shape="991.88,1498.33 994.98,1498.77"/>
    </edge>
    <edge id=":nod_1_2_24" function="internal">
        <lane id=":nod_1_2_24_0" index="0" speed="13.89" length="12.67" shape="994.98,1498.77 996.16,1498.94 999.22,1500.78 1001.06,1503.84 1001.67,1508.12"/>
    </edge>
    <edge id=":nod_1_2_17" function="internal">
        <lane id=":nod_1_2_17_0" index="0" speed="13.89" length="2.45" shape="991.88,1498.33 993.13,1499.16 993.55,1500.00"/>
    </edge>
    <edge id=":nod_1_2_25" function="internal">
        <lane id=":nod_1_2_25_0" index="0" speed="13.89" length="2.45" shape="993.55,1500.00 993.13,1500.84 991.88,1501.67"/>
    </edge>
    <edge id=":nod_1_3_0" function="internal">
        <lane id=":nod_1_3_0_0" index="0" speed="13.89" length="5.00" shape="1494.97,1508.12 1494.78,1506.77 1494.20,1505.80 1493.23,1505.22 1491.88,1505.03"/>
    </edge>
    <edge id=":nod_1_3_1" function="internal">
        <lane id=":nod_1_3_1_0" index="0" speed="13.89" length="16.25" shape="1494.97,1508.12 1494.97,1503.30 1494.97,1500.00 1494.97,1496.70 1494.97,1491.88"/>
    </edge>
    <edge id=":nod_1_3_2" function="internal">
        <lane id=":nod_1_3_2_0" index="0" speed="13.89" length="16.25" shape="1498.33,1508.12 1498.33,1503.30 1498.33,1500.00 1498.33,1496.70 1498.33,1491.88"/>
    </edge>
    <edge id=":nod_1_3_3" function="internal">
        <lane id=":nod_1_3_3_0" index="0" speed="13.89" length="6.85" shape="1498.33,1508.12 1498.94,1503.84 1500.24,1501.67"/>
    </edge>
    <edge id=":nod_1_3_18" function="internal">
        <lane id=":nod_1_3_18_0" index="0" speed="13.89" length="8.95" shape="1500.24,1501.67 1500.78,1500.77 1503.84,1498.94 1508.12,1498.33"/>
    </edge>
    <edge id=":nod_1_3_4" function="internal">
        <lane id=":nod_1_3_4_0" index="0" speed="13.89" length="2.45" shape="1498.33,1508.12 1499.16,1506.87 1500.00,1506.45"/>
    </edge>
    <edge id=":nod_1_3_19" function="internal">
        <lane id=":nod_1_3_19_0" index="0" speed="13.89" length="2.45" shape="1500.00,1506.45 1500.84,1506.87 1501.67,1508.12"/>
    </edge>
    <edge id=":nod_1_3_5" function="internal">
        <lane id=":nod_1_3_5_0" index="0" speed="13.89" length="5.00" shape="1508.12,1505.03 1506.77,1505.22 1505.80,1505.80 1505.22,1506.77 1505.03,1508.12"/>
    </edge>
    <edge id=":nod_1_3_6" function="internal">
        <lane id=":nod_1_3_6_0" index="0" speed="13.89" length="16.25" shape="1508.12,1501.67 1503.30,1501.67 1500.00,1501.67 1496.70,1501.67 1491.88,1501.67"/>
    </edge>
    <edge id=":nod_1_3_7" function="internal">
        <lane id=":nod_1_3_7_0" index="0" speed="13.89" length="3.13" shape="1508.12,1501.67 1505.03,1501.23"/>
    </edge>
    <edge id=":nod_1_3_20" function="internal">
        <lane id=":nod_1_3_20_0" index="0" speed="13.89" length="12.67" shape="1505.03,1501.23 1503.84,1501.06 1500.77,1499.22 1498.94,1496.16 1498.33,1491.88"/>
    </edge>
    <edge id=":nod_1_3_8" function="internal">
        <lane id=":nod_1_3_8_0" index="0" speed="13.89" length="2.45" shape="1508.12,1501.67 1506.87,1500.84 1506.45,1500.00"/>
    </edge>
    <edge id=":nod_1_3_21" function="internal">
        <lane id=":nod_1_3_21_0" index="0" speed="13.89" length="2.45" shape="1506.45,1500.00 1506.87,1499.16 1508.12,1498.33"/>
    </edge>
    <edge id=":nod_1_3_9" function="internal">
        <lane id=":nod_1_3_9_0" index="0" speed="13.89" length="5.00" shape="1505.03,1491.88 1505.22,1493.23 1505.80,1494.20 1506.77,1494.78 1508.12,1494.97"/>
    </edge>
    <edge id=":nod_1_3_10" function="internal">
        <lane id=":nod_1_3_10_0" index="0" speed="13.89" length="16.25" shape="1505.03,1491.88 1505.03,1496.70 1505.03,1500.00 1505.03,1503.30 1505.03,1508.12"/>
    </edge>
    <edge id=":nod_1_3_11" function="internal">
        <lane id=":nod_1_3_11_0" index="0" speed="13.89" length="16.25" shape="1501.67,1491.88 1501.67,1496.70 1501.67,1500.00 1501.67,1503.30 1501.67,1508.12"/>
    </edge>
    <edge id=":nod_1_3_12" function="internal">
        <lane id=":nod_1_3_12_0" index="0" speed="13.89" length="6.85" shape="1501.67,1491.88 1501.06,1496.16 1499.76,1498.33"/>
    </edge>
    <edge id=":nod_1_3_22" function="internal">
        <lane id=":nod_1_3_22_0" index="0" speed="13.89" length="8.95" shape="1499.76,1498.33 1499.22,1499.23 1496.16,1501.06 1491.88,1501.67"/>
    </edge>
    <edge id=":nod_1_3_13" function="internal">
        <lane id=":nod_1_3_13_0" index="0" speed="13.89" length="2.45" shape="1501.67,1491.88 1500.84,1493.13 1500.00,1493.55"/>
    </edge>
    <edge id=":nod_1_3_23" function="internal">
        <lane id=":nod_1_3_23_0" index="0" speed="13.89" length="2.45" shape="1500.00,1493.55 1499.16,1493.13 1498.33,1491.88"/>
    </edge>
    <edge id=":nod_1_3_14" function="internal">
        <lane id=":nod_1_3_14_0" index="0" speed="13.89" length="5.00" shape="1491.88,1494.97 1493.23,1494.78 1494.20,1494.20 1494.78,1493.23 1494.97,1491.88"/>
    </edge>
    <edge id=":nod_1_3_15" function="internal">
        <lane id=":nod_1_3_15_0" index="0" speed="13.89" length="16.25" shape="1491.88,1498.33 1496.70,1498.33 1500.00,1498.33 1503.30,1498.33 1508.12,1498.33"/>
    </edge>
    <edge id=":nod_1_3_16" function="internal">
        <lane id=":nod_1_3_16_0" index="0" speed="13.89" length="3.13" shape="1491.88,1498.33 1494.97,1498.77"/>
    </edge>
    <edge id=":nod_1_3_24" function="internal">
        <lane id=":nod_1_3_24_0" index="0" speed="13.89" length="12.67" shape="1494.97,1498.77 1496.16,1498.94 1499.23,1500.78 1501.06,1503.84 1501.67,1508.12"/>
    </edge>
    <edge id=":nod_1_3_17" function="internal">
        <lane id=":nod_1_3_17_0" index="0" speed="13.89" length="2.45" shape="1491.88,1498.33 1493.13,1499.16 1493.55,1500.00"/>
    </edge>
    <edge id=":nod_1_3_25" function="internal">
        <lane id=":nod_1_3_25_0" index="0" speed="13.89" length="2.45" shape="1493.55,1500.00 1493.13,1500.84 1491.88,1501.67"/>
    </edge>
    <edge id=":nod_1_4_0" function="internal">
        <lane id=":nod_1_4_0_0" index="0" speed="13.89" length="4.89" shape="2000.00,1498.33 2001.26,1499.16 2001.67,1500.00 2001.26,1500.84 2000.00,1501.67"/>
    </edge>
    <edge id=":nod_2_0_0" function="internal">
        <lane id=":nod_2_0_0_0" index="0" speed="13.89" length="4.89" shape="0.00,1001.67 -1.26,1000.84 -1.67,1000.00 -1.26,999.16 0.00,998.33"/>
    </edge>
    <edge id=":nod_2_1_0" function="internal">
        <lane id=":nod_2_1_0_0" index="0" speed="13.89" length="5.00" shape="494.98,1008.12 494.78,1006.77 494.20,1005.80 493.23,1005.22 491.88,1005.02"/>
    </edge>
    <edge id=":nod_2_1_1" function="internal">
        <lane id=":nod_2_1_1_0" index="0" speed="13.89" length="16.25" shape="494.98,1008.12 494.98,1003.30 494.98,1000.00 494.98,996.70 494.98,991.88"/>
    </edge>
    <edge id=":nod_2_1_2" function="internal">
        <lane id=":nod_2_1_2_0" index="0" speed="13.89" length="16.25" shape="498.32,1008.12 498.32,1003.30 498.32,1000.00 498.33,996.70 498.32,991.88"/>
    </edge>
    <edge id=":nod_2_1_3" function="internal">
        <lane id=":nod_2_1_3_0" index="0" speed="13.89" length="6.85" shape="498.32,1008.12 498.94,1003.84 500.24,1001.67"/>
    </edge>
    <edge id=":nod_2_1_18" function="internal">
        <lane id=":nod_2_1_18_0" index="0" speed="13.89" length="8.95" shape="500.24,1001.67 500.77,1000.78 503.84,998.94 508.12,998.33"/>
    </edge>
    <edge id=":nod_2_1_4" function="internal">
        <lane id=":nod_2_1_4_0" index="0" speed="13.89" length="2.45" shape="498.32,1008.12 499.16,1006.87 500.00,1006.45"/>
    </edge>
    <edge id=":nod_2_1_19" function="internal">
        <lane id=":nod_2_1_19_0" index="0" speed="13.89" length="2.45" shape="500.00,1006.45 500.84,1006.87 501.68,1008.12"/>
    </edge>
    <edge id=":nod_2_1_5" function="internal">
        <lane id=":nod_2_1_5_0" index="0" speed="13.89" length="5.00" shape="508.12,1005.02 506.77,1005.22 505.80,1005.80 505.22,1006.77 505.02,1008.12"/>
    </edge>
    <edge id=":nod_2_1_6" function="internal">
        <lane id=":nod_2_1_6_0" index="0" speed="13.89" length="16.25" shape="508.12,1001.67 503.30,1001.67 500.00,1001.67 496.70,1001.67 491.88,1001.67"/>
    </edge>
    <edge id=":nod_2_1_7" function="internal">
        <lane id=":nod_2_1_7_0" index="0" speed="13.89" length="3.13" shape="508.12,1001.67 505.02,1001.23"/>
    </edge>
    <edge id=":nod_2_1_20" function="internal">
        <lane id=":nod_2_1_20_0" index="0" speed="13.89" length="12.67" shape="505.02,1001.23 503.84,1001.06 500.78,999.22 498.94,996.16 498.32,991.88"/>
    </edge>
    <edge id=":nod_2_1_8" function="internal">
        <lane id=":nod_2_1_8_0" index="0" speed="13.89" length="2.45" shape="508.12,1001.67 506.87,1000.84 506.45,1000.00"/>
    </edge>
    <edge id=":nod_2_1_21" function="internal">
        <lane id=":nod_2_1_21_0" index="0" speed="13.89" length="2.45" shape="506.45,1000.00 506.87,999.16 508.12,998.33"/>
    </edge>
    <edge id=":nod_2_1_9" function="internal">
        <lane id=":nod_2_1_9_0" index="0" speed="13.89" length="5.00" shape="505.02,991.88 505.22,993.23 505.80,994.20 506.77,994.78 508.12,994.98"/>
    </edge>
    <edge id=":nod_2_1_10" function="internal">
        <lane id=":nod_2_1_10_0" index="0" speed="13.89" length="16.25" shape="505.02,991.88 505.02,996.70 505.02,1000.00 505.02,1003.30 505.02,1008.12"/>
    </edge>
    <edge id=":nod_2_1_11" function="internal">
        <lane id=":nod_2_1_11_0" index="0" speed="13.89" length="16.25" shape="501.68,991.88 501.68,996.70 501.68,1000.00 501.67,1003.30 501.68,1008.12"/>
    </edge>
    <edge id=":nod_2_1_12" function="internal">
        <lane id=":nod_2_1_12_0" index="0" speed="13.89" length="6.85" shape="501.68,991.88 501.06,996.16 499.76,998.33"/>
    </edge>
    <edge id=":nod_2_1_22" function="internal">
        <lane id=":nod_2_1_22_0" index="0" speed="13.89" length="8.95" shape="499.76,998.33 499.23,999.22 496.16,1001.06 491.88,1001.67"/>
    </edge>
    <edge id=":nod_2_1_13" function="internal">
        <lane id=":nod_2_1_13_0" index="0" speed="13.89" length="2.45" shape="501.68,991.88 500.84,993.13 500.00,993.55"/>
    </edge>
    <edge id=":nod_2_1_23" function="internal">
        <lane id=":nod_2_1_23_0" index="0" speed="13.89" length="2.45" shape="500.00,993.55 499.16,993.13 498.32,991.88"/>
    </edge>
    <edge id=":nod_2_1_14" function="internal">
        <lane id=":nod_2_1_14_0" index="0" speed="13.89" length="5.00" shape="491.88,994.98 493.23,994.78 494.20,994.20 494.78,993.23 494.98,991.88"/>
    </edge>
    <edge id=":nod_2_1_15" function="internal">
        <lane id=":nod_2_1_15_0" index="0" speed="13.89" length="16.25" shape="491.88,998.33 496.70,998.33 500.00,998.33 503.30,998.33 508.12,998.33"/>
    </edge>
    <edge id=":nod_2_1_16" function="internal">
        <lane id=":nod_2_1_16_0" index="0" speed="13.89" length="3.13" shape="491.88,998.33 494.98,998.77"/>
    </edge>
    <edge id=":nod_2_1_24" function="internal">
        <lane id=":nod_2_1_24_0" index="0" speed="13.89" length="12.67" shape="494.98,998.77 496.16,998.94 499.22,1000.78 501.06,1003.84 501.68,1008.12"/>
    </edge>
    <edge id=":nod_2_1_17" function="internal">
        <lane id=":nod_2_1_17_0" index="0" speed="13.89" length="2.45" shape="491.88,998.33 493.13,999.16 493.55,1000.00"/>
    </edge>
    <edge id=":nod_2_1_25" function="internal">
        <lane id=":nod_2_1_25_0" index="0" speed="13.89" length="2.45" shape="493.55,1000.00 493.13,1000.84 491.88,1001.67"/>
    </edge>
    <edge id=":nod_2_2_0" function="internal">
        <lane id=":nod_2_2_0_0" index="0" speed="13.89" length="5.00" shape="994.98,1008.12 994.78,1006.77 994.20,1005.80 993.23,1005.22 991.88,1005.02"/>
    </edge>
    <edge id=":nod_2_2_1" function="internal">
        <lane id=":nod_2_2_1_0" index="0" speed="13.89" length="16.25" shape="994.98,1008.12 994.98,1003.30 994.98,1000.00 994.97,996.70 994.98,991.88"/>
    </edge>
    <edge id=":nod_2_2_2" function="internal">
        <lane id=":nod_2_2_2_0" index="0" speed="13.89" length="16.25" shape="998.33,1008.12 998.33,1003.30 998.33,1000.00 998.33,996.70 998.33,991.88"/>
    </edge>
    <edge id=":nod_2_2_3" function="internal">
        <lane id=":nod_2_2_3_0" index="0" speed="13.89" length="6.85" shape="998.33,1008.12 998.94,1003.84 1000.24,1001.67"/>
    </edge>
    <edge id=":nod_2_2_18" function="internal">
        <lane id=":nod_2_2_18_0" index="0" speed="13.89" length="8.95" shape="1000.24,1001.67 1000.78,1000.78 1003.84,998.94 1008.12,998.33"/>
    </edge>
    <edge id=":nod_2_2_4" function="internal">
        <lane id=":nod_2_2_4_0" index="0" speed="13.89" length="2.45" shape="998.33,1008.12 999.16,1006.87 1000.00,1006.45"/>
    </edge>
    <edge id=":nod_2_2_19" function="internal">
        <lane id=":nod_2_2_19_0" index="0" speed="13.89" length="2.45" shape="1000.00,1006.45 1000.84,1006.87 1001.67,1008.12"/>
    </edge>
    <edge id=":nod_2_2_5" function="internal">
        <lane id=":nod_2_2_5_0" index="0" speed="13.89" length="5.00" shape="1008.12,1005.02 1006.77,1005.22 1005.80,1005.80 1005.22,1006.77 1005.02,1008.12"/>
    </edge>
    <edge id=":nod_2_2_6" function="internal">
        <lane id=":nod_2_2_6_0" index="0" speed="13.89" length="16.25" shape="1008.12,1001.67 1003.30,1001.67 1000.00,1001.67 996.70,1001.67 991.88,1001.67"/>
    </edge>
    <edge id=":nod_2_2_7" function="internal">
        <lane id=":nod_2_2_7_0" index="0" speed="13.89" length="3.13" shape="1008.12,1001.67 1005.02,1001.23"/>
    </edge>
    <edge id=":nod_2_2_20" function="internal">
        <lane id=":nod_2_2_20_0" index="0" speed="13.89" length="12.67" shape="1005.02,1001.23 1003.84,1001.06 1000.78,999.22 998.94,996.16 998.33,991.88"/>
    </edge>
    <edge id=":nod_2_2_8" function="internal">
        <lane id=":nod_2_2_8_0" index="0" speed="13.89" length="2.45" shape="1008.12,1001.67 1006.87,1000.84 1006.45,1000.00"/>
    </edge>
    <edge id=":nod_2_2_21" function="internal">
        <lane id=":nod_2_2_21_0" index="0" speed="13.89" length="2.45" shape="1006.45,1000.00 1006.87,999.16 1008.12,998.33"/>
    </edge>
    <edge id=":nod_2_2_9" function="internal">
        <lane id=":nod_2_2_9_0" index="0" speed="13.89" length="5.00" shape="1005.02,991.88 1005.22,993.23 1005.80,994.20 1006.77,994.78 1008.12,994.98"/>
    </edge>
    <edge id=":nod_2_2_10" function="internal">
        <lane id=":nod_2_2_10_0" index="0" speed="13.89" length="16.25" shape="1005.02,991.88 1005.02,996.70 1005.02,1000.00 1005.03,1003.30 1005.02,1008.12"/>
    </edge>
    <edge id=":nod_2_2_11" function="internal">
        <lane id=":nod_2_2_11_0" index="0" speed="13.89" length="16.25" shape="1001.67,991.88 1001.67,996.70 1001.67,1000.00 1001.67,1003.30 1001.67,1008.12"/>
    </edge>
    <edge id=":nod_2_2_12" function="internal">
        <lane id=":nod_2_2_12_0" index="0" speed="13.89" length="6.85" shape="1001.67,991.88 1001.06,996.16 999.76,998.33"/>
    </edge>
    <edge id=":nod_2_2_22" function="internal">
        <lane id=":nod_2_2_22_0" index="0" speed="13.89" length="8.95" shape="999.76,998.33 999.22,999.22 996.16,1001.06 991.88,1001.67"/>
    </edge>
    <edge id=":nod_2_2_13" function="internal">
        <lane id=":nod_2_2_13_0" index="0" speed="13.89" length="2.45" shape="1001.67,991.88 1000.84,993.13 1000.00,993.55"/>
    </edge>
    <edge id=":nod_2_2_23" function="internal">
        <lane id=":nod_2_2_23_0" index="0" speed="13.89" length="2.45" shape="1000.00,993.55 999.16,993.13 998.33,991.88"/>
    </edge>
    <edge id=":nod_2_2_14" function="internal">
        <lane id=":nod_2_2_14_0" index="0" speed="13.89" length="5.00" shape="991.88,994.98 993.23,994.78 994.20,994.20 994.78,993.23 994.98,991.88"/>
    </edge>
    <edge id=":nod_2_2_15" function="internal">
        <lane id=":nod_2_2_15_0" index="0" speed="13.89" length="16.25" shape="991.88,998.33 996.70,998.33 1000.00,998.33 1003.30,998.33 1008.12,998.33"/>
    </edge>
    <edge id=":nod_2_2_16" function="internal">
        <lane id=":nod_2_2_16_0" index="0" speed="13.89" length="3.13" shape="991.88,998.33 994.98,998.77"/>
    </edge>
    <edge id=":nod_2_2_24" function="internal">
        <lane id=":nod_2_2_24_0" index="0" speed="13.89" length="12.67" shape="994.98,998.77 996.16,998.94 999.22,1000.78 1001.06,1003.84 1001.67,1008.12"/>
    </edge>
    <edge id=":nod_2_2_17" function="internal">
        <lane id=":nod_2_2_17_0" index="0" speed="13.89" length="2.45" shape="991.88,998.33 993.13,999.16 993.55,1000.00"/>
    </edge>
    <edge id=":nod_2_2_25" function="internal">
        <lane id=":nod_2_2_25_0" index="0" speed="13.89" length="2.45" shape="993.55,1000.00 993.13,1000.84 991.88,1001.67"/>
    </edge>
    <edge id=":nod_2_3_0" function="internal">
        <lane id=":nod_2_3_0_0" index="0" speed="13.89" length="5.00" shape="1494.97,1008.12 1494.78,1006.77 1494.20,1005.80 1493.23,1005.22 1491.88,1005.02"/>
    </edge>
    <edge id=":nod_2_3_1" function="internal">
        <lane id=":nod_2_3_1_0" index="0" speed="13.89" length="16.25" shape="1494.97,1008.12 1494.97,1003.30 1494.97,1000.00 1494.97,996.70 1494.97,991.88"/>
    </edge>
    <edge id=":nod_2_3_2" function="internal">
        <lane id=":nod_2_3_2_0" index="0" speed="13.89" length="16.25" shape="1498.33,1008.12 1498.33,1003.30 1498.33,1000.00 1498.33,996.70 1498.33,991.88"/>
    </edge>
    <edge id=":nod_2_3_3" function="internal">
        <lane id=":nod_2_3_3_0" index="0" speed="13.89" length="6.85" shape="1498.33,1008.12 1498.94,1003.84 1500.24,1001.67"/>
    </edge>
    <edge id=":nod_2_3_18" function="internal">
        <lane id=":nod_2_3_18_0" index="0" speed="13.89" length="8.95" shape="1500.24,1001.67 1500.78,1000.78 1503.84,998.94 1508.12,998.33"/>
    </edge>
    <edge id=":nod_2_3_4" function="internal">
        <lane id=":nod_2_3_4_0" index="0" speed="13.89" length="2.45" shape="1498.33,1008.12 1499.16,1006.87 1500.00,1006.45"/>
    </edge>
    <edge id=":nod_2_3_19" function="internal">
        <lane id=":nod_2_3_19_0" index="0" speed="13.89" length="2.45" shape="1500.00,1006.45 1500.84,1006.87 1501.67,1008.12"/>
    </edge>
    <edge id=":nod_2_3_5" function="internal">
        <lane id=":nod_2_3_5_0" index="0" speed="13.89" length="5.00" shape="1508.12,1005.02 1506.77,1005.22 1505.80,1005.80 1505.22,1006.77 1505.03,1008.12"/>
    </edge>