<?xml version="1.0" encoding="UTF-8"?>

<!-- generated on Mon Nov 11 16:30:17 2013 by SUMO netconvert Version 0.17.0
<?xml version="1.0" encoding="UTF-8"?>

<configuration xmlns:xsi="http://www.w3.org/2001/XMLSchema-instance" xsi:noNamespaceSchemaLocation="http://sumo.sf.net/xsd/netconvertConfiguration.xsd">

    <input>
        <node-files value="GridNetwork.nod.xml"/>
        <edge-files value="GridNetwork.edg.xml"/>
        <type-files value="GridNetwork.typ.xml"/>
    </input>

    <output>
        <output-file value="GridNetwork.net.xml"/>
    </output>

    <report>
        <verbose value="true"/>
    </report>

</configuration>
-->

<net version="0.13" xmlns:xsi="http://www.w3.org/2001/XMLSchema-instance" xsi:noNamespaceSchemaLocation="http://sumo.sf.net/xsd/net_file.xsd">

    <location netOffset="1500.00,1500.00" convBoundary="0.00,0.00,3000.00,3000.00" origBoundary="-1500.00,-1500.00,1500.00,1500.00" projParameter="!"/>

    <edge id=":nod_0_1_0" function="internal">
        <lane id=":nod_0_1_0_0" index="0" speed="13.89" length="4.89" shape="1001.67,3000.00 1000.84,3001.26 1000.00,3001.68 999.16,3001.26 998.33,3000.00"/>
    </edge>
    <edge id=":nod_0_2_0" function="internal">
        <lane id=":nod_0_2_0_0" index="0" speed="13.89" length="4.89" shape="2001.67,3000.00 2000.84,3001.26 2000.00,3001.68 1999.16,3001.26 1998.33,3000.00"/>
    </edge>
    <edge id=":nod_1_0_0" function="internal">
        <lane id=":nod_1_0_0_0" index="0" speed="13.89" length="4.89" shape="0.00,2001.67 -1.26,2000.84 -1.67,2000.00 -1.26,1999.16 0.00,1998.33"/>
    </edge>
    <edge id=":nod_1_1_0" function="internal">
        <lane id=":nod_1_1_0_0" index="0" speed="13.89" length="5.00" shape="994.98,2008.12 994.78,2006.77 994.20,2005.80 993.23,2005.22 991.88,2005.03"/>
    </edge>
    <edge id=":nod_1_1_1" function="internal">
        <lane id=":nod_1_1_1_0" index="0" speed="13.89" length="16.25" shape="994.98,2008.12 994.98,2003.30 994.98,2000.00 994.97,1996.70 994.98,1991.88"/>
    </edge>
    <edge id=":nod_1_1_2" function="internal">
        <lane id=":nod_1_1_2_0" index="0" speed="13.89" length="16.25" shape="998.33,2008.12 998.33,2003.30 998.33,2000.00 998.33,1996.70 998.33,1991.88"/>
    </edge>
    <edge id=":nod_1_1_3" function="internal">
        <lane id=":nod_1_1_3_0" index="0" speed="13.89" length="6.85" shape="998.33,2008.12 998.94,2003.84 1000.24,2001.67"/>
    </edge>
    <edge id=":nod_1_1_18" function="internal">
        <lane id=":nod_1_1_18_0" index="0" speed="13.89" length="8.95" shape="1000.24,2001.67 1000.78,2000.77 1003.84,1998.94 1008.12,1998.33"/>
    </edge>
    <edge id=":nod_1_1_4" function="internal">
        <lane id=":nod_1_1_4_0" index="0" speed="13.89" length="2.45" shape="998.33,2008.12 999.16,2006.87 1000.00,2006.45"/>
    </edge>
    <edge id=":nod_1_1_19" function="internal">
        <lane id=":nod_1_1_19_0" index="0" speed="13.89" length="2.45" shape="1000.00,2006.45 1000.84,2006.87 1001.67,2008.12"/>
    </edge>
    <edge id=":nod_1_1_5" function="internal">
        <lane id=":nod_1_1_5_0" index="0" speed="13.89" length="5.00" shape="1008.12,2005.03 1006.77,2005.22 1005.80,2005.80 1005.22,2006.77 1005.02,2008.12"/>
    </edge>
    <edge id=":nod_1_1_6" function="internal">
        <lane id=":nod_1_1_6_0" index="0" speed="13.89" length="16.25" shape="1008.12,2001.67 1003.30,2001.67 1000.00,2001.67 996.70,2001.68 991.88,2001.67"/>
    </edge>
    <edge id=":nod_1_1_7" function="internal">
        <lane id=":nod_1_1_7_0" index="0" speed="13.89" length="3.13" shape="1008.12,2001.67 1005.02,2001.23"/>
    </edge>
    <edge id=":nod_1_1_20" function="internal">
        <lane id=":nod_1_1_20_0" index="0" speed="13.89" length="12.67" shape="1005.02,2001.23 1003.84,2001.06 1000.78,1999.22 998.94,1996.16 998.33,1991.88"/>
    </edge>
    <edge id=":nod_1_1_8" function="internal">
        <lane id=":nod_1_1_8_0" index="0" speed="13.89" length="2.45" shape="1008.12,2001.67 1006.87,2000.84 1006.45,2000.00"/>
    </edge>
    <edge id=":nod_1_1_21" function="internal">
        <lane id=":nod_1_1_21_0" index="0" speed="13.89" length="2.45" shape="1006.45,2000.00 1006.87,1999.16 1008.12,1998.33"/>
    </edge>
    <edge id=":nod_1_1_9" function="internal">
        <lane id=":nod_1_1_9_0" index="0" speed="13.89" length="5.00" shape="1005.02,1991.88 1005.22,1993.23 1005.80,1994.20 1006.77,1994.78 1008.12,1994.97"/>
    </edge>
    <edge id=":nod_1_1_10" function="internal">
        <lane id=":nod_1_1_10_0" index="0" speed="13.89" length="16.25" shape="1005.02,1991.88 1005.02,1996.70 1005.02,2000.00 1005.03,2003.30 1005.02,2008.12"/>
    </edge>
    <edge id=":nod_1_1_11" function="internal">
        <lane id=":nod_1_1_11_0" index="0" speed="13.89" length="16.25" shape="1001.67,1991.88 1001.67,1996.70 1001.67,2000.00 1001.67,2003.30 1001.67,2008.12"/>
    </edge>
    <edge id=":nod_1_1_12" function="internal">
        <lane id=":nod_1_1_12_0" index="0" speed="13.89" length="6.85" shape="1001.67,1991.88 1001.06,1996.16 999.76,1998.33"/>
    </edge>
    <edge id=":nod_1_1_22" function="internal">
        <lane id=":nod_1_1_22_0" index="0" speed="13.89" length="8.95" shape="999.76,1998.33 999.22,1999.23 996.16,2001.06 991.88,2001.67"/>
    </edge>
    <edge id=":nod_1_1_13" function="internal">
        <lane id=":nod_1_1_13_0" index="0" speed="13.89" length="2.45" shape="1001.67,1991.88 1000.84,1993.13 1000.00,1993.55"/>
    </edge>
    <edge id=":nod_1_1_23" function="internal">
        <lane id=":nod_1_1_23_0" index="0" speed="13.89" length="2.45" shape="1000.00,1993.55 999.16,1993.13 998.33,1991.88"/>
    </edge>
    <edge id=":nod_1_1_14" function="internal">
        <lane id=":nod_1_1_14_0" index="0" speed="13.89" length="5.00" shape="991.88,1994.97 993.23,1994.78 994.20,1994.20 994.78,1993.23 994.98,1991.88"/>
    </edge>
    <edge id=":nod_1_1_15" function="internal">
        <lane id=":nod_1_1_15_0" index="0" speed="13.89" length="16.25" shape="991.88,1998.33 996.70,1998.33 1000.00,1998.33 1003.30,1998.32 1008.12,1998.33"/>
    </edge>
    <edge id=":nod_1_1_16" function="internal">
        <lane id=":nod_1_1_16_0" index="0" speed="13.89" length="3.13" shape="991.88,1998.33 994.98,1998.77"/>
    </edge>
    <edge id=":nod_1_1_24" function="internal">
        <lane id=":nod_1_1_24_0" index="0" speed="13.89" length="12.67" shape="994.98,1998.77 996.16,1998.94 999.23,2000.78 1001.06,2003.84 1001.67,2008.12"/>
    </edge>
    <edge id=":nod_1_1_17" function="internal">
        <lane id=":nod_1_1_17_0" index="0" speed="13.89" length="2.45" shape="991.88,1998.33 993.13,1999.16 993.55,2000.00"/>
    </edge>
    <edge id=":nod_1_1_25" function="internal">
        <lane id=":nod_1_1_25_0" index="0" speed="13.89" length="2.45" shape="993.55,2000.00 993.13,2000.84 991.88,2001.67"/>
    </edge>
    <edge id=":nod_1_2_0" function="internal">
        <lane id=":nod_1_2_0_0" index="0" speed="13.89" length="5.00" shape="1994.97,2008.12 1994.78,2006.77 1994.20,2005.80 1993.23,2005.22 1991.88,2005.03"/>
    </edge>
    <edge id=":nod_1_2_1" function="internal">
        <lane id=":nod_1_2_1_0" index="0" speed="13.89" length="16.25" shape="1994.97,2008.12 1994.97,2003.30 1994.97,2000.00 1994.97,1996.70 1994.97,1991.88"/>
    </edge>
    <edge id=":nod_1_2_2" function="internal">
        <lane id=":nod_1_2_2_0" index="0" speed="13.89" length="16.25" shape="1998.33,2008.12 1998.33,2003.30 1998.33,2000.00 1998.32,1996.70 1998.33,1991.88"/>
    </edge>
    <edge id=":nod_1_2_3" function="internal">
        <lane id=":nod_1_2_3_0" index="0" speed="13.89" length="6.85" shape="1998.33,2008.12 1998.94,2003.84 2000.24,2001.67"/>
    </edge>
    <edge id=":nod_1_2_18" function="internal">
        <lane id=":nod_1_2_18_0" index="0" speed="13.89" length="8.95" shape="2000.24,2001.67 2000.78,2000.77 2003.84,1998.94 2008.12,1998.33"/>
    </edge>
    <edge id=":nod_1_2_4" function="internal">
        <lane id=":nod_1_2_4_0" index="0" speed="13.89" length="2.45" shape="1998.33,2008.12 1999.16,2006.87 2000.00,2006.45"/>
    </edge>
    <edge id=":nod_1_2_19" function="internal">
        <lane id=":nod_1_2_19_0" index="0" speed="13.89" length="2.45" shape="2000.00,2006.45 2000.84,2006.87 2001.67,2008.12"/>
    </edge>
    <edge id=":nod_1_2_5" function="internal">
        <lane id=":nod_1_2_5_0" index="0" speed="13.89" length="5.00" shape="2008.12,2005.03 2006.77,2005.22 2005.80,2005.80 2005.22,2006.77 2005.03,2008.12"/>
    </edge>
    <edge id=":nod_1_2_6" function="internal">
        <lane id=":nod_1_2_6_0" index="0" speed="13.89" length="16.25" shape="2008.12,2001.67 2003.30,2001.67 2000.00,2001.67 1996.70,2001.68 1991.88,2001.67"/>
    </edge>
    <edge id=":nod_1_2_7" function="internal">
        <lane id=":nod_1_2_7_0" index="0" speed="13.89" length="3.13" shape="2008.12,2001.67 2005.03,2001.23"/>
    </edge>
    <edge id=":nod_1_2_20" function="internal">
        <lane id=":nod_1_2_20_0" index="0" speed="13.89" length="12.67" shape="2005.03,2001.23 2003.84,2001.06 2000.77,1999.22 1998.94,1996.16 1998.33,1991.88"/>
    </edge>
    <edge id=":nod_1_2_8" function="internal">
        <lane id=":nod_1_2_8_0" index="0" speed="13.89" length="2.45" shape="2008.12,2001.67 2006.87,2000.84 2006.45,2000.00"/>
    </edge>
    <edge id=":nod_1_2_21" function="internal">
        <lane id=":nod_1_2_21_0" index="0" speed="13.89" length="2.45" shape="2006.45,2000.00 2006.87,1999.16 2008.12,1998.33"/>
    </edge>
    <edge id=":nod_1_2_9" function="internal">
        <lane id=":nod_1_2_9_0" index="0" speed="13.89" length="5.00" shape="2005.03,1991.88 2005.22,1993.23 2005.80,1994.20 2006.77,1994.78 2008.12,1994.97"/>
    </edge>
    <edge id=":nod_1_2_10" function="internal">
        <lane id=":nod_1_2_10_0" index="0" speed="13.89" length="16.25" shape="2005.03,1991.88 2005.03,1996.70 2005.03,2000.00 2005.03,2003.30 2005.03,2008.12"/>
    </edge>
    <edge id=":nod_1_2_11" function="internal">
        <lane id=":nod_1_2_11_0" index="0" speed="13.89" length="16.25" shape="2001.67,1991.88 2001.67,1996.70 2001.67,2000.00 2001.68,2003.30 2001.67,2008.12"/>
    </edge>
    <edge id=":nod_1_2_12" function="internal">
        <lane id=":nod_1_2_12_0" index="0" speed="13.89" length="6.85" shape="2001.67,1991.88 2001.06,1996.16 1999.76,1998.33"/>
    </edge>
    <edge id=":nod_1_2_22" function="internal">
        <lane id=":nod_1_2_22_0" index="0" speed="13.89" length="8.95" shape="1999.76,1998.33 1999.22,1999.23 1996.16,2001.06 1991.88,2001.67"/>
    </edge>
    <edge id=":nod_1_2_13" function="internal">
        <lane id=":nod_1_2_13_0" index="0" speed="13.89" length="2.45" shape="2001.67,1991.88 2000.84,1993.13 2000.00,1993.55"/>
    </edge>
    <edge id=":nod_1_2_23" function="internal">
        <lane id=":nod_1_2_23_0" index="0" speed="13.89" length="2.45" shape="2000.00,1993.55 1999.16,1993.13 1998.33,1991.88"/>
    </edge>
    <edge id=":nod_1_2_14" function="internal">
        <lane id=":nod_1_2_14_0" index="0" speed="13.89" length="5.00" shape="1991.88,1994.97 1993.23,1994.78 1994.20,1994.20 1994.78,1993.23 1994.97,1991.88"/>
    </edge>
    <edge id=":nod_1_2_15" function="internal">
        <lane id=":nod_1_2_15_0" index="0" speed="13.89" length="16.25" shape="1991.88,1998.33 1996.70,1998.33 2000.00,1998.33 2003.30,1998.32 2008.12,1998.33"/>
    </edge>
    <edge id=":nod_1_2_16" function="internal">
        <lane id=":nod_1_2_16_0" index="0" speed="13.89" length="3.13" shape="1991.88,1998.33 1994.97,1998.77"/>
    </edge>
    <edge id=":nod_1_2_24" function="internal">
        <lane id=":nod_1_2_24_0" index="0" speed="13.89" length="12.67" shape="1994.97,1998.77 1996.16,1998.94 1999.23,2000.78 2001.06,2003.84 2001.67,2008.12"/>
    </edge>
    <edge id=":nod_1_2_17" function="internal">
        <lane id=":nod_1_2_17_0" index="0" speed="13.89" length="2.45" shape="1991.88,1998.33 1993.13,1999.16 1993.55,2000.00"/>
    </edge>
    <edge id=":nod_1_2_25" function="internal">
        <lane id=":nod_1_2_25_0" index="0" speed="13.89" length="2.45" shape="1993.55,2000.00 1993.13,2000.84 1991.88,2001.67"/>
    </edge>
    <edge id=":nod_1_3_0" function="internal">
        <lane id=":nod_1_3_0_0" index="0" speed="13.89" length="4.89" shape="3000.00,1998.33 3001.26,1999.16 3001.68,2000.00 3001.26,2000.84 3000.00,2001.67"/>
    </edge>
    <edge id=":nod_2_0_0" function="internal">
        <lane id=":nod_2_0_0_0" index="0" speed="13.89" length="4.89" shape="0.00,1001.67 -1.26,1000.84 -1.67,1000.00 -1.26,999.16 0.00,998.33"/>
    </edge>
    <edge id=":nod_2_1_0" function="internal">
        <lane id=":nod_2_1_0_0" index="0" speed="13.89" length="5.00" shape="994.98,1008.12 994.78,1006.77 994.20,1005.80 993.23,1005.22 991.88,1005.02"/>
    </edge>
    <edge id=":nod_2_1_1" function="internal">
        <lane id=":nod_2_1_1_0" index="0" speed="13.89" length="16.25" shape="994.98,1008.12 994.98,1003.30 994.98,1000.00 994.97,996.70 994.98,991.88"/>
    </edge>
    <edge id=":nod_2_1_2" function="internal">
        <lane id=":nod_2_1_2_0" index="0" speed="13.89" length="16.25" shape="998.33,1008.12 998.33,1003.30 998.33,1000.00 998.33,996.70 998.33,991.88"/>
    </edge>
    <edge id=":nod_2_1_3" function="internal">
        <lane id=":nod_2_1_3_0" index="0" speed="13.89" length="6.85" shape="998.33,1008.12 998.94,1003.84 1000.24,1001.67"/>
    </edge>
    <edge id=":nod_2_1_18" function="internal">
        <lane id=":nod_2_1_18_0" index="0" speed="13.89" length="8.95" shape="1000.24,1001.67 1000.78,1000.78 1003.84,998.94 1008.12,998.33"/>
    </edge>
    <edge id=":nod_2_1_4" function="internal">
        <lane id=":nod_2_1_4_0" index="0" speed="13.89" length="2.45" shape="998.33,1008.12 999.16,1006.87 1000.00,1006.45"/>
    </edge>
    <edge id=":nod_2_1_19" function="internal">
        <lane id=":nod_2_1_19_0" index="0" speed="13.89" length="2.45" shape="1000.00,1006.45 1000.84,1006.87 1001.67,1008.12"/>
    </edge>
    <edge id=":nod_2_1_5" function="internal">
        <lane id=":nod_2_1_5_0" index="0" speed="13.89" length="5.00" shape="1008.12,1005.02 1006.77,1005.22 1005.80,1005.80 1005.22,1006.77 1005.02,1008.12"/>
    </edge>
    <edge id=":nod_2_1_6" function="internal">
        <lane id=":nod_2_1_6_0" index="0" speed="13.89" length="16.25" shape="1008.12,1001.67 1003.30,1001.67 1000.00,1001.67 996.70,1001.67 991.88,1001.67"/>
    </edge>
    <edge id=":nod_2_1_7" function="internal">
        <lane id=":nod_2_1_7_0" index="0" speed="13.89" length="3.13" shape="1008.12,1001.67 1005.02,1001.23"/>
    </edge>
    <edge id=":nod_2_1_20" function="internal">
        <lane id=":nod_2_1_20_0" index="0" speed="13.89" length="12.67" shape="1005.02,1001.23 1003.84,1001.06 1000.78,999.22 998.94,996.16 998.33,991.88"/>
    </edge>
    <edge id=":nod_2_1_8" function="internal">
        <lane id=":nod_2_1_8_0" index="0" speed="13.89" length="2.45" shape="1008.12,1001.67 1006.87,1000.84 1006.45,1000.00"/>
    </edge>
    <edge id=":nod_2_1_21" function="internal">
        <lane id=":nod_2_1_21_0" index="0" speed="13.89" length="2.45" shape="1006.45,1000.00 1006.87,999.16 1008.12,998.33"/>
    </edge>
    <edge id=":nod_2_1_9" function="internal">
        <lane id=":nod_2_1_9_0" index="0" speed="13.89" length="5.00" shape="1005.02,991.88 1005.22,993.23 1005.80,994.20 1006.77,994.78 1008.12,994.98"/>
    </edge>
    <edge id=":nod_2_1_10" function="internal">
        <lane id=":nod_2_1_10_0" index="0" speed="13.89" length="16.25" shape="1005.02,991.88 1005.02,996.70 1005.02,1000.00 1005.03,1003.30 1005.02,1008.12"/>
    </edge>
    <edge id=":nod_2_1_11" function="internal">
        <lane id=":nod_2_1_11_0" index="0" speed="13.89" length="16.25" shape="1001.67,991.88 1001.67,996.70 1001.67,1000.00 1001.67,1003.30 1001.67,1008.12"/>
    </edge>
    <edge id=":nod_2_1_12" function="internal">
        <lane id=":nod_2_1_12_0" index="0" speed="13.89" length="6.85" shape="1001.67,991.88 1001.06,996.16 999.76,998.33"/>
    </edge>
    <edge id=":nod_2_1_22" function="internal">
        <lane id=":nod_2_1_22_0" index="0" speed="13.89" length="8.95" shape="999.76,998.33 999.22,999.23 996.16,1001.06 991.88,1001.67"/>
    </edge>
    <edge id=":nod_2_1_13" function="internal">
        <lane id=":nod_2_1_13_0" index="0" speed="13.89" length="2.45" shape="1001.67,991.88 1000.84,993.13 1000.00,993.55"/>
    </edge>
    <edge id=":nod_2_1_23" function="internal">
        <lane id=":nod_2_1_23_0" index="0" speed="13.89" length="2.45" shape="1000.00,993.55 999.16,993.13 998.33,991.88"/>
    </edge>
    <edge id=":nod_2_1_14" function="internal">
        <lane id=":nod_2_1_14_0" index="0" speed="13.89" length="5.00" shape="991.88,994.98 993.23,994.78 994.20,994.20 994.78,993.23 994.98,991.88"/>
    </edge>
    <edge id=":nod_2_1_15" function="internal">
        <lane id=":nod_2_1_15_0" index="0" speed="13.89" length="16.25" shape="991.88,998.33 996.70,998.33 1000.00,998.33 1003.30,998.33 1008.12,998.33"/>
    </edge>
    <edge id=":nod_2_1_16" function="internal">
        <lane id=":nod_2_1_16_0" index="0" speed="13.89" length="3.13" shape="991.88,998.33 994.98,998.77"/>
    </edge>
    <edge id=":nod_2_1_24" function="internal">
        <lane id=":nod_2_1_24_0" index="0" speed="13.89" length="12.67" shape="994.98,998.77 996.16,998.94 999.23,1000.78 1001.06,1003.84 1001.67,1008.12"/>
    </edge>
    <edge id=":nod_2_1_17" function="internal">
        <lane id=":nod_2_1_17_0" index="0" speed="13.89" length="2.45" shape="991.88,998.33 993.13,999.16 993.55,1000.00"/>
    </edge>
    <edge id=":nod_2_1_25" function="internal">
        <lane id=":nod_2_1_25_0" index="0" speed="13.89" length="2.45" shape="993.55,1000.00 993.13,1000.84 991.88,1001.67"/>
    </edge>
    <edge id=":nod_2_2_0" function="internal">
        <lane id=":nod_2_2_0_0" index="0" speed="13.89" length="5.00" shape="1994.97,1008.12 1994.78,1006.77 1994.20,1005.80 1993.23,1005.22 1991.88,1005.02"/>
    </edge>
    <edge id=":nod_2_2_1" function="internal">
        <lane id=":nod_2_2_1_0" index="0" speed="13.89" length="16.25" shape="1994.97,1008.12 1994.97,1003.30 1994.97,1000.00 1994.97,996.70 1994.97,991.88"/>
    </edge>
    <edge id=":nod_2_2_2" function="internal">
        <lane id=":nod_2_2_2_0" index="0" speed="13.89" length="16.25" shape="1998.33,1008.12 1998.33,1003.30 1998.33,1000.00 1998.32,996.70 1998.33,991.88"/>
    </edge>
    <edge id=":nod_2_2_3" function="internal">
        <lane id=":nod_2_2_3_0" index="0" speed="13.89" length="6.85" shape="1998.33,1008.12 1998.94,1003.84 2000.24,1001.67"/>
    </edge>
    <edge id=":nod_2_2_18" function="internal">
        <lane id=":nod_2_2_18_0" index="0" speed="13.89" length="8.95" shape="2000.24,1001.67 2000.78,1000.78 2003.84,998.94 2008.12,998.33"/>
    </edge>
    <edge id=":nod_2_2_4" function="internal">
        <lane id=":nod_2_2_4_0" index="0" speed="13.89" length="2.45" shape="1998.33,1008.12 1999.16,1006.87 2000.00,1006.45"/>
    </edge>
    <edge id=":nod_2_2_19" function="internal">
        <lane id=":nod_2_2_19_0" index="0" speed="13.89" length="2.45" shape="2000.00,1006.45 2000.84,1006.87 2001.67,1008.12"/>
    </edge>
    <edge id=":nod_2_2_5" function="internal">
        <lane id=":nod_2_2_5_0" index="0" speed="13.89" length="5.00" shape="2008.12,1005.02 2006.77,1005.22 2005.80,1005.80 2005.22,1006.77 2005.03,1008.12"/>
    </edge>
    <edge id=":nod_2_2_6" function="internal">
        <lane id=":nod_2_2_6_0" index="0" speed="13.89" length="16.25" shape="2008.12,1001.67 2003.30,1001.67 2000.00,1001.67 1996.70,1001.67 1991.88,1001.67"/>
    </edge>
    <edge id=":nod_2_2_7" function="internal">
        <lane id=":nod_2_2_7_0" index="0" speed="13.89" length="3.13" shape="2008.12,1001.67 2005.03,1001.23"/>
    </edge>
    <edge id=":nod_2_2_20" function="internal">
        <lane id=":nod_2_2_20_0" index="0" speed="13.89" length="12.67" shape="2005.03,1001.23 2003.84,1001.06 2000.77,999.22 1998.94,996.16 1998.33,991.88"/>
    </edge>
    <edge id=":nod_2_2_8" function="internal">
        <lane id=":nod_2_2_8_0" index="0" speed="13.89" length="2.45" shape="2008.12,1001.67 2006.87,1000.84 2006.45,1000.00"/>
    </edge>
    <edge id=":nod_2_2_21" function="internal">
        <lane id=":nod_2_2_21_0" index="0" speed="13.89" length="2.45" shape="2006.45,1000.00 2006.87,999.16 2008.12,998.33"/>
    </edge>
    <edge id=":nod_2_2_9" function="internal">
        <lane id=":nod_2_2_9_0" index="0" speed="13.89" length="5.00" shape="2005.03,991.88 2005.22,993.23 2005.80,994.20 2006.77,994.78 2008.12,994.98"/>
    </edge>
    <edge id=":nod_2_2_10" function="internal">
        <lane id=":nod_2_2_10_0" index="0" speed="13.89" length="16.25" shape="2005.03,991.88 2005.03,996.70 2005.03,1000.00 2005.03,1003.30 2005.03,1008.12"/>
    </edge>
    <edge id=":nod_2_2_11" function="internal">
        <lane id=":nod_2_2_11_0" index="0" speed="13.89" length="16.25" shape="2001.67,991.88 2001.67,996.70 2001.67,1000.00 2001.68,1003.30 2001.67,1008.12"/>
    </edge>
    <edge id=":nod_2_2_12" function="internal">
        <lane id=":nod_2_2_12_0" index="0" speed="13.89" length="6.85" shape="2001.67,991.88 2001.06,996.16 1999.76,998.33"/>
    </edge>
    <edge id=":nod_2_2_22" function="internal">
        <lane id=":nod_2_2_22_0" index="0" speed="13.89" length="8.95" shape="1999.76,998.33 1999.22,999.23 1996.16,1001.06 1991.88,1001.67"/>
    </edge>
    <edge id=":nod_2_2_13" function="internal">
        <lane id=":nod_2_2_13_0" index="0" speed="13.89" length="2.45" shape="2001.67,991.88 2000.84,993.13 2000.00,993.55"/>
    </edge>
    <edge id=":nod_2_2_23" function="internal">
        <lane id=":nod_2_2_23_0" index="0" speed="13.89" length="2.45" shape="2000.00,993.55 1999.16,993.13 1998.33,991.88"/>
    </edge>
    <edge id=":nod_2_2_14" function="internal">
        <lane id=":nod_2_2_14_0" index="0" speed="13.89" length="5.00" shape="1991.88,994.98 1993.23,994.78 1994.20,994.20 1994.78,993.23 1994.97,991.88"/>
    </edge>
    <edge id=":nod_2_2_15" function="internal">
        <lane id=":nod_2_2_15_0" index="0" speed="13.89" length="16.25" shape="1991.88,998.33 1996.70,998.33 2000.00,998.33 2003.30,998.33 2008.12,998.33"/>
    </edge>
    <edge id=":nod_2_2_16" function="internal">
        <lane id=":nod_2_2_16_0" index="0" speed="13.89" length="3.13" shape="1991.88,998.33 1994.97,998.77"/>
    </edge>
    <edge id=":nod_2_2_24" function="internal">
        <lane id=":nod_2_2_24_0" index="0" speed="13.89" length="12.67" shape="1994.97,998.77 1996.16,998.94 1999.23,1000.78 2001.06,1003.84 2001.67,1008.12"/>
    </edge>
    <edge id=":nod_2_2_17" function="internal">
        <lane id=":nod_2_2_17_0" index="0" speed="13.89" length="2.45" shape="1991.88,998.33 1993.13,999.16 1993.55,1000.00"/>
    </edge>
    <edge id=":nod_2_2_25" function="internal">
        <lane id=":nod_2_2_25_0" index="0" speed="13.89" length="2.45" shape="1993.55,1000.00 1993.13,1000.84 1991.88,1001.67"/>
    </edge>
    <edge id=":nod_2_3_0" function="internal">
        <lane id=":nod_2_3_0_0" index="0" speed="13.89" length="4.89" shape="3000.00,998.33 3001.26,999.16 3001.68,1000.00 3001.26,1000.84 3000.00,1001.67"/>
    </edge>
    <edge id=":nod_3_1_0" function="internal">
        <lane id=":nod_3_1_0_0" index="0" speed="13.89" length="4.89" shape="998.33,0.00 999.16,-1.26 1000.00,-1.67 1000.84,-1.26 1001.67,0.00"/>
    </edge>
    <edge id=":nod_3_2_0" function="internal">
        <lane id=":nod_3_2_0_0" index="0" speed="13.89" length="4.89" shape="1998.33,0.00 1999.16,-1.26 2000.00,-1.67 2000.84,-1.26 2001.67,0.00"/>
    </edge>

    <edge id="edg_0_1_S" from="nod_0_1" to="nod_1_1" priority="10" type="secondary.urban">
        <lane id="edg_0_1_S_0" index="0" speed="13.89" length="991.88" width="3.25" shape="994.98,3000.00 994.98,2008.12"/>
        <lane id="edg_0_1_S_1" index="1" speed="13.89" length="991.88" width="3.25" shape="998.33,3000.00 998.33,2008.12"/>
    </edge>
    <edge id="edg_0_2_S" from="nod_0_2" to="nod_1_2" priority="10" type="secondary.urban">
        <lane id="edg_0_2_S_0" index="0" speed="13.89" length="991.88" width="3.25" shape="1994.97,3000.00 1994.97,2008.12"/>
        <lane id="edg_0_2_S_1" index="1" speed="13.89" length="991.88" width="3.25" shape="1998.33,3000.00 1998.33,2008.12"/>
    </edge>
    <edge id="edg_1_0_E" from="nod_1_0" to="nod_1_1" priority="10" type="secondary.urban">
        <lane id="edg_1_0_E_0" index="0" speed="13.89" length="991.88" width="3.25" shape="0.00,1994.97 991.88,1994.97"/>
        <lane id="edg_1_0_E_1" index="1" speed="13.89" length="991.88" width="3.25" shape="0.00,1998.33 991.88,1998.33"/>
    </edge>
    <edge id="edg_1_1_E" from="nod_1_1" to="nod_1_2" priority="10" type="secondary.urban">
        <lane id="edg_1_1_E_0" index="0" speed="13.89" length="983.75" width="3.25" shape="1008.12,1994.97 1991.88,1994.97"/>
        <lane id="edg_1_1_E_1" index="1" speed="13.89" length="983.75" width="3.25" shape="1008.12,1998.33 1991.88,1998.33"/>
    </edge>
    <edge id="edg_1_1_N" from="nod_1_1" to="nod_0_1" priority="10" type="secondary.urban">
        <lane id="edg_1_1_N_0" index="0" speed="13.89" length="991.88" width="3.25" shape="1005.02,2008.12 1005.02,3000.00"/>
        <lane id="edg_1_1_N_1" index="1" speed="13.89" length="991.88" width="3.25" shape="1001.67,2008.12 1001.67,3000.00"/>
    </edge>
    <edge id="edg_1_1_S" from="nod_1_1" to="nod_2_1" priority="10" type="secondary.urban">
        <lane id="edg_1_1_S_0" index="0" speed="13.89" length="983.75" width="3.25" shape="994.98,1991.88 994.98,1008.12"/>
        <lane id="edg_1_1_S_1" index="1" speed="13.89" length="983.75" width="3.25" shape="998.33,1991.88 998.33,1008.12"/>
    </edge>
    <edge id="edg_1_1_W" from="nod_1_1" to="nod_1_0" priority="10" type="secondary.urban">
        <lane id="edg_1_1_W_0" index="0" speed="13.89" length="991.88" width="3.25" shape="991.88,2005.03 0.00,2005.03"/>
        <lane id="edg_1_1_W_1" index="1" speed="13.89" length="991.88" width="3.25" shape="991.88,2001.67 0.00,2001.67"/>
    </edge>
    <edge id="edg_1_2_E" from="nod_1_2" to="nod_1_3" priority="10" type="secondary.urban">
        <lane id="edg_1_2_E_0" index="0" speed="13.89" length="991.88" width="3.25" shape="2008.12,1994.97 3000.00,1994.97"/>
        <lane id="edg_1_2_E_1" index="1" speed="13.89" length="991.88" width="3.25" shape="2008.12,1998.33 3000.00,1998.33"/>
    </edge>
    <edge id="edg_1_2_N" from="nod_1_2" to="nod_0_2" priority="10" type="secondary.urban">
        <lane id="edg_1_2_N_0" index="0" speed="13.89" length="991.88" width="3.25" shape="2005.03,2008.12 2005.03,3000.00"/>
        <lane id="edg_1_2_N_1" index="1" speed="13.89" length="991.88" width="3.25" shape="2001.67,2008.12 2001.67,3000.00"/>
    </edge>
    <edge id="edg_1_2_S" from="nod_1_2" to="nod_2_2" priority="10" type="secondary.urban">
        <lane id="edg_1_2_S_0" index="0" speed="13.89" length="983.75" width="3.25" shape="1994.97,1991.88 1994.97,1008.12"/>
        <lane id="edg_1_2_S_1" index="1" speed="13.89" length="983.75" width="3.25" shape="1998.33,1991.88 1998.33,1008.12"/>
    </edge>
    <edge id="edg_1_2_W" from="nod_1_2" to="nod_1_1" priority="10" type="secondary.urban">
        <lane id="edg_1_2_W_0" index="0" speed="13.89" length="983.75" width="3.25" shape="1991.88,2005.03 1008.12,2005.03"/>
        <lane id="edg_1_2_W_1" index="1" speed="13.89" length="983.75" width="3.25" shape="1991.88,2001.67 1008.12,2001.67"/>
    </edge>
    <edge id="edg_1_3_W" from="nod_1_3" to="nod_1_2" priority="10" type="secondary.urban">
        <lane id="edg_1_3_W_0" index="0" speed="13.89" length="991.88" width="3.25" shape="3000.00,2005.03 2008.12,2005.03"/>
        <lane id="edg_1_3_W_1" index="1" speed="13.89" length="991.88" width="3.25" shape="3000.00,2001.67 2008.12,2001.67"/>
    </edge>
    <edge id="edg_2_0_E" from="nod_2_0" to="nod_2_1" priority="10" type="secondary.urban">
        <lane id="edg_2_0_E_0" index="0" speed="13.89" length="991.88" width="3.25" shape="0.00,994.98 991.88,994.98"/>
        <lane id="edg_2_0_E_1" index="1" speed="13.89" length="991.88" width="3.25" shape="0.00,998.33 991.88,998.33"/>
    </edge>
    <edge id="edg_2_1_E" from="nod_2_1" to="nod_2_2" priority="10" type="secondary.urban">
        <lane id="edg_2_1_E_0" index="0" speed="13.89" length="983.75" width="3.25" shape="1008.12,994.98 1991.88,994.98"/>
        <lane id="edg_2_1_E_1" index="1" speed="13.89" length="983.75" width="3.25" shape="1008.12,998.33 1991.88,998.33"/>
    </edge>
    <edge id="edg_2_1_N" from="nod_2_1" to="nod_1_1" priority="10" type="secondary.urban">
        <lane id="edg_2_1_N_0" index="0" speed="13.89" length="983.75" width="3.25" shape="1005.02,1008.12 1005.02,1991.88"/>
        <lane id="edg_2_1_N_1" index="1" speed="13.89" length="983.75" width="3.25" shape="1001.67,1008.12 1001.67,1991.88"/>
    </edge>
    <edge id="edg_2_1_S" from="nod_2_1" to="nod_3_1" priority="10" type="secondary.urban">
        <lane id="edg_2_1_S_0" index="0" speed="13.89" length="991.88" width="3.25" shape="994.98,991.88 994.98,0.00"/>
        <lane id="edg_2_1_S_1" index="1" speed="13.89" length="991.88" width="3.25" shape="998.33,991.88 998.33,0.00"/>
    </edge>
    <edge id="edg_2_1_W" from="nod_2_1" to="nod_2_0" priority="10" type="secondary.urban">
        <lane id="edg_2_1_W_0" index="0" speed="13.89" length="991.88" width="3.25" shape="991.88,1005.02 0.00,1005.02"/>
        <lane id="edg_2_1_W_1" index="1" speed="13.89" length="991.88" width="3.25" shape="991.88,1001.67 0.00,1001.67"/>
    </edge>
    <edge id="edg_2_2_E" from="nod_2_2" to="nod_2_3" priority="10" type="secondary.urban">
        <lane id="edg_2_2_E_0" index="0" speed="13.89" length="991.88" width="3.25" shape="2008.12,994.98 3000.00,994.98"/>
        <lane id="edg_2_2_E_1" index="1" speed="13.89" length="991.88" width="3.25" shape="2008.12,998.33 3000.00,998.33"/>
    </edge>