<?xml version="1.0" encoding="UTF-8"?>

<!-- generated on Wed Nov 13 16:52:03 2013 by SUMO netconvert Version 0.17.0
<?xml version="1.0" encoding="UTF-8"?>

<configuration xmlns:xsi="http://www.w3.org/2001/XMLSchema-instance" xsi:noNamespaceSchemaLocation="http://sumo.sf.net/xsd/netconvertConfiguration.xsd">

    <input>
        <node-files value="GridNetwork.nod.xml"/>
        <edge-files value="GridNetwork.edg.xml"/>
        <type-files value="GridNetwork.typ.xml"/>
    </input>

    <output>
        <output-file value="GridNetwork.net.xml"/>
    </output>

    <report>
        <verbose value="true"/>
    </report>

</configuration>
-->

<net version="0.13" xmlns:xsi="http://www.w3.org/2001/XMLSchema-instance" xsi:noNamespaceSchemaLocation="http://sumo.sf.net/xsd/net_file.xsd">

    <location netOffset="999.00,999.00" convBoundary="0.00,0.00,1998.00,1998.00" origBoundary="-999.00,-999.00,999.00,999.00" projParameter="!"/>

    <edge id=":nod_0_1_0" function="internal">
        <lane id=":nod_0_1_0_0" index="0" speed="13.89" length="4.89" shape="667.67,1998.00 666.84,1999.26 666.00,1999.67 665.16,1999.26 664.33,1998.00"/>
    </edge>
    <edge id=":nod_0_2_0" function="internal">
        <lane id=":nod_0_2_0_0" index="0" speed="13.89" length="4.89" shape="1333.67,1998.00 1332.84,1999.26 1332.00,1999.67 1331.16,1999.26 1330.33,1998.00"/>
    </edge>
    <edge id=":nod_1_0_0" function="internal">
        <lane id=":nod_1_0_0_0" index="0" speed="13.89" length="4.89" shape="0.00,1333.67 -1.26,1332.84 -1.67,1332.00 -1.26,1331.16 0.00,1330.33"/>
    </edge>
    <edge id=":nod_1_1_0" function="internal">
        <lane id=":nod_1_1_0_0" index="0" speed="13.89" length="5.00" shape="660.98,1340.12 660.78,1338.77 660.20,1337.80 659.23,1337.22 657.88,1337.03"/>
    </edge>
    <edge id=":nod_1_1_1" function="internal">
        <lane id=":nod_1_1_1_0" index="0" speed="13.89" length="16.25" shape="660.98,1340.12 660.98,1335.30 660.98,1332.00 660.98,1328.70 660.98,1323.88"/>
    </edge>
    <edge id=":nod_1_1_2" function="internal">
        <lane id=":nod_1_1_2_0" index="0" speed="13.89" length="16.25" shape="664.33,1340.12 664.33,1335.30 664.33,1332.00 664.33,1328.70 664.33,1323.88"/>
    </edge>
    <edge id=":nod_1_1_3" function="internal">
        <lane id=":nod_1_1_3_0" index="0" speed="13.89" length="6.85" shape="664.33,1340.12 664.94,1335.84 666.24,1333.67"/>
    </edge>
    <edge id=":nod_1_1_18" function="internal">
        <lane id=":nod_1_1_18_0" index="0" speed="13.89" length="8.95" shape="666.24,1333.67 666.78,1332.78 669.84,1330.94 674.12,1330.33"/>
    </edge>
    <edge id=":nod_1_1_4" function="internal">
        <lane id=":nod_1_1_4_0" index="0" speed="13.89" length="2.45" shape="664.33,1340.12 665.16,1338.87 666.00,1338.45"/>
    </edge>
    <edge id=":nod_1_1_19" function="internal">
        <lane id=":nod_1_1_19_0" index="0" speed="13.89" length="2.45" shape="666.00,1338.45 666.84,1338.87 667.67,1340.12"/>
    </edge>
    <edge id=":nod_1_1_5" function="internal">
        <lane id=":nod_1_1_5_0" index="0" speed="13.89" length="5.00" shape="674.12,1337.03 672.77,1337.22 671.80,1337.80 671.22,1338.77 671.02,1340.12"/>
    </edge>
    <edge id=":nod_1_1_6" function="internal">
        <lane id=":nod_1_1_6_0" index="0" speed="13.89" length="16.25" shape="674.12,1333.67 669.30,1333.67 666.00,1333.67 662.70,1333.67 657.88,1333.67"/>
    </edge>
    <edge id=":nod_1_1_7" function="internal">
        <lane id=":nod_1_1_7_0" index="0" speed="13.89" length="3.13" shape="674.12,1333.67 671.02,1333.23"/>
    </edge>
    <edge id=":nod_1_1_20" function="internal">
        <lane id=":nod_1_1_20_0" index="0" speed="13.89" length="12.67" shape="671.02,1333.23 669.84,1333.06 666.78,1331.22 664.94,1328.16 664.33,1323.88"/>
    </edge>
    <edge id=":nod_1_1_8" function="internal">
        <lane id=":nod_1_1_8_0" index="0" speed="13.89" length="2.45" shape="674.12,1333.67 672.87,1332.84 672.45,1332.00"/>
    </edge>
    <edge id=":nod_1_1_21" function="internal">
        <lane id=":nod_1_1_21_0" index="0" speed="13.89" length="2.45" shape="672.45,1332.00 672.87,1331.16 674.12,1330.33"/>
    </edge>
    <edge id=":nod_1_1_9" function="internal">
        <lane id=":nod_1_1_9_0" index="0" speed="13.89" length="5.00" shape="671.02,1323.88 671.22,1325.23 671.80,1326.20 672.77,1326.78 674.12,1326.97"/>
    </edge>
    <edge id=":nod_1_1_10" function="internal">
        <lane id=":nod_1_1_10_0" index="0" speed="13.89" length="16.25" shape="671.02,1323.88 671.02,1328.70 671.02,1332.00 671.02,1335.30 671.02,1340.12"/>
    </edge>
    <edge id=":nod_1_1_11" function="internal">
        <lane id=":nod_1_1_11_0" index="0" speed="13.89" length="16.25" shape="667.67,1323.88 667.67,1328.70 667.67,1332.00 667.67,1335.30 667.67,1340.12"/>
    </edge>
    <edge id=":nod_1_1_12" function="internal">
        <lane id=":nod_1_1_12_0" index="0" speed="13.89" length="6.85" shape="667.67,1323.88 667.06,1328.16 665.76,1330.33"/>
    </edge>
    <edge id=":nod_1_1_22" function="internal">
        <lane id=":nod_1_1_22_0" index="0" speed="13.89" length="8.95" shape="665.76,1330.33 665.22,1331.22 662.16,1333.06 657.88,1333.67"/>
    </edge>
    <edge id=":nod_1_1_13" function="internal">
        <lane id=":nod_1_1_13_0" index="0" speed="13.89" length="2.45" shape="667.67,1323.88 666.84,1325.13 666.00,1325.55"/>
    </edge>
    <edge id=":nod_1_1_23" function="internal">
        <lane id=":nod_1_1_23_0" index="0" speed="13.89" length="2.45" shape="666.00,1325.55 665.16,1325.13 664.33,1323.88"/>
    </edge>
    <edge id=":nod_1_1_14" function="internal">
        <lane id=":nod_1_1_14_0" index="0" speed="13.89" length="5.00" shape="657.88,1326.97 659.23,1326.78 660.20,1326.20 660.78,1325.23 660.98,1323.88"/>
    </edge>
    <edge id=":nod_1_1_15" function="internal">
        <lane id=":nod_1_1_15_0" index="0" speed="13.89" length="16.25" shape="657.88,1330.33 662.70,1330.33 666.00,1330.33 669.30,1330.33 674.12,1330.33"/>
    </edge>
    <edge id=":nod_1_1_16" function="internal">
        <lane id=":nod_1_1_16_0" index="0" speed="13.89" length="3.13" shape="657.88,1330.33 660.98,1330.77"/>
    </edge>
    <edge id=":nod_1_1_24" function="internal">
        <lane id=":nod_1_1_24_0" index="0" speed="13.89" length="12.67" shape="660.98,1330.77 662.16,1330.94 665.22,1332.78 667.06,1335.84 667.67,1340.12"/>
    </edge>
    <edge id=":nod_1_1_17" function="internal">
        <lane id=":nod_1_1_17_0" index="0" speed="13.89" length="2.45" shape="657.88,1330.33 659.13,1331.16 659.55,1332.00"/>
    </edge>
    <edge id=":nod_1_1_25" function="internal">
        <lane id=":nod_1_1_25_0" index="0" speed="13.89" length="2.45" shape="659.55,1332.00 659.13,1332.84 657.88,1333.67"/>
    </edge>
    <edge id=":nod_1_2_0" function="internal">
        <lane id=":nod_1_2_0_0" index="0" speed="13.89" length="5.00" shape="1326.97,1340.12 1326.78,1338.77 1326.20,1337.80 1325.23,1337.22 1323.88,1337.03"/>
    </edge>
    <edge id=":nod_1_2_1" function="internal">
        <lane id=":nod_1_2_1_0" index="0" speed="13.89" length="16.25" shape="1326.97,1340.12 1326.97,1335.30 1326.97,1332.00 1326.97,1328.70 1326.97,1323.88"/>
    </edge>
    <edge id=":nod_1_2_2" function="internal">
        <lane id=":nod_1_2_2_0" index="0" speed="13.89" length="16.25" shape="1330.33,1340.12 1330.33,1335.30 1330.33,1332.00 1330.33,1328.70 1330.33,1323.88"/>
    </edge>
    <edge id=":nod_1_2_3" function="internal">
        <lane id=":nod_1_2_3_0" index="0" speed="13.89" length="6.85" shape="1330.33,1340.12 1330.94,1335.84 1332.24,1333.67"/>
    </edge>
    <edge id=":nod_1_2_18" function="internal">
        <lane id=":nod_1_2_18_0" index="0" speed="13.89" length="8.95" shape="1332.24,1333.67 1332.78,1332.78 1335.84,1330.94 1340.12,1330.33"/>
    </edge>
    <edge id=":nod_1_2_4" function="internal">
        <lane id=":nod_1_2_4_0" index="0" speed="13.89" length="2.45" shape="1330.33,1340.12 1331.16,1338.87 1332.00,1338.45"/>
    </edge>
    <edge id=":nod_1_2_19" function="internal">
        <lane id=":nod_1_2_19_0" index="0" speed="13.89" length="2.45" shape="1332.00,1338.45 1332.84,1338.87 1333.67,1340.12"/>
    </edge>
    <edge id=":nod_1_2_5" function="internal">
        <lane id=":nod_1_2_5_0" index="0" speed="13.89" length="5.00" shape="1340.12,1337.03 1338.77,1337.22 1337.80,1337.80 1337.22,1338.77 1337.03,1340.12"/>
    </edge>
    <edge id=":nod_1_2_6" function="internal">
        <lane id=":nod_1_2_6_0" index="0" speed="13.89" length="16.25" shape="1340.12,1333.67 1335.30,1333.67 1332.00,1333.67 1328.70,1333.67 1323.88,1333.67"/>
    </edge>
    <edge id=":nod_1_2_7" function="internal">
        <lane id=":nod_1_2_7_0" index="0" speed="13.89" length="3.13" shape="1340.12,1333.67 1337.03,1333.23"/>
    </edge>
    <edge id=":nod_1_2_20" function="internal">
        <lane id=":nod_1_2_20_0" index="0" speed="13.89" length="12.67" shape="1337.03,1333.23 1335.84,1333.06 1332.78,1331.22 1330.94,1328.16 1330.33,1323.88"/>
    </edge>
    <edge id=":nod_1_2_8" function="internal">
        <lane id=":nod_1_2_8_0" index="0" speed="13.89" length="2.45" shape="1340.12,1333.67 1338.87,1332.84 1338.45,1332.00"/>
    </edge>
    <edge id=":nod_1_2_21" function="internal">
        <lane id=":nod_1_2_21_0" index="0" speed="13.89" length="2.45" shape="1338.45,1332.00 1338.87,1331.16 1340.12,1330.33"/>
    </edge>
    <edge id=":nod_1_2_9" function="internal">
        <lane id=":nod_1_2_9_0" index="0" speed="13.89" length="5.00" shape="1337.03,1323.88 1337.22,1325.23 1337.80,1326.20 1338.77,1326.78 1340.12,1326.97"/>
    </edge>
    <edge id=":nod_1_2_10" function="internal">
        <lane id=":nod_1_2_10_0" index="0" speed="13.89" length="16.25" shape="1337.03,1323.88 1337.03,1328.70 1337.03,1332.00 1337.03,1335.30 1337.03,1340.12"/>
    </edge>
    <edge id=":nod_1_2_11" function="internal">
        <lane id=":nod_1_2_11_0" index="0" speed="13.89" length="16.25" shape="1333.67,1323.88 1333.67,1328.70 1333.67,1332.00 1333.67,1335.30 1333.67,1340.12"/>
    </edge>
    <edge id=":nod_1_2_12" function="internal">
        <lane id=":nod_1_2_12_0" index="0" speed="13.89" length="6.85" shape="1333.67,1323.88 1333.06,1328.16 1331.76,1330.33"/>
    </edge>
    <edge id=":nod_1_2_22" function="internal">
        <lane id=":nod_1_2_22_0" index="0" speed="13.89" length="8.95" shape="1331.76,1330.33 1331.22,1331.22 1328.16,1333.06 1323.88,1333.67"/>
    </edge>
    <edge id=":nod_1_2_13" function="internal">
        <lane id=":nod_1_2_13_0" index="0" speed="13.89" length="2.45" shape="1333.67,1323.88 1332.84,1325.13 1332.00,1325.55"/>
    </edge>
    <edge id=":nod_1_2_23" function="internal">
        <lane id=":nod_1_2_23_0" index="0" speed="13.89" length="2.45" shape="1332.00,1325.55 1331.16,1325.13 1330.33,1323.88"/>
    </edge>
    <edge id=":nod_1_2_14" function="internal">
        <lane id=":nod_1_2_14_0" index="0" speed="13.89" length="5.00" shape="1323.88,1326.97 1325.23,1326.78 1326.20,1326.20 1326.78,1325.23 1326.97,1323.88"/>
    </edge>
    <edge id=":nod_1_2_15" function="internal">
        <lane id=":nod_1_2_15_0" index="0" speed="13.89" length="16.25" shape="1323.88,1330.33 1328.70,1330.33 1332.00,1330.33 1335.30,1330.33 1340.12,1330.33"/>
    </edge>
    <edge id=":nod_1_2_16" function="internal">
        <lane id=":nod_1_2_16_0" index="0" speed="13.89" length="3.13" shape="1323.88,1330.33 1326.97,1330.77"/>
    </edge>
    <edge id=":nod_1_2_24" function="internal">
        <lane id=":nod_1_2_24_0" index="0" speed="13.89" length="12.67" shape="1326.97,1330.77 1328.16,1330.94 1331.22,1332.78 1333.06,1335.84 1333.67,1340.12"/>
    </edge>
    <edge id=":nod_1_2_17" function="internal">
        <lane id=":nod_1_2_17_0" index="0" speed="13.89" length="2.45" shape="1323.88,1330.33 1325.13,1331.16 1325.55,1332.00"/>
    </edge>
    <edge id=":nod_1_2_25" function="internal">
        <lane id=":nod_1_2_25_0" index="0" speed="13.89" length="2.45" shape="1325.55,1332.00 1325.13,1332.84 1323.88,1333.67"/>
    </edge>
    <edge id=":nod_1_3_0" function="internal">
        <lane id=":nod_1_3_0_0" index="0" speed="13.89" length="4.89" shape="1998.00,1330.33 1999.26,1331.16 1999.67,1332.00 1999.26,1332.84 1998.00,1333.67"/>
    </edge>
    <edge id=":nod_2_0_0" function="internal">
        <lane id=":nod_2_0_0_0" index="0" speed="13.89" length="4.89" shape="0.00,667.67 -1.26,666.84 -1.67,666.00 -1.26,665.16 0.00,664.33"/>
    </edge>
    <edge id=":nod_2_1_0" function="internal">
        <lane id=":nod_2_1_0_0" index="0" speed="13.89" length="5.00" shape="660.98,674.12 660.78,672.77 660.20,671.80 659.23,671.22 657.88,671.02"/>
    </edge>
    <edge id=":nod_2_1_1" function="internal">
        <lane id=":nod_2_1_1_0" index="0" speed="13.89" length="16.25" shape="660.98,674.12 660.98,669.30 660.98,666.00 660.98,662.70 660.98,657.88"/>
    </edge>
    <edge id=":nod_2_1_2" function="internal">
        <lane id=":nod_2_1_2_0" index="0" speed="13.89" length="16.25" shape="664.33,674.12 664.33,669.30 664.33,666.00 664.33,662.70 664.33,657.88"/>
    </edge>
    <edge id=":nod_2_1_3" function="internal">
        <lane id=":nod_2_1_3_0" index="0" speed="13.89" length="6.85" shape="664.33,674.12 664.94,669.84 666.24,667.67"/>
    </edge>
    <edge id=":nod_2_1_18" function="internal">
        <lane id=":nod_2_1_18_0" index="0" speed="13.89" length="8.95" shape="666.24,667.67 666.78,666.78 669.84,664.94 674.12,664.33"/>
    </edge>
    <edge id=":nod_2_1_4" function="internal">
        <lane id=":nod_2_1_4_0" index="0" speed="13.89" length="2.45" shape="664.33,674.12 665.16,672.87 666.00,672.45"/>
    </edge>
    <edge id=":nod_2_1_19" function="internal">
        <lane id=":nod_2_1_19_0" index="0" speed="13.89" length="2.45" shape="666.00,672.45 666.84,672.87 667.67,674.12"/>
    </edge>
    <edge id=":nod_2_1_5" function="internal">
        <lane id=":nod_2_1_5_0" index="0" speed="13.89" length="5.00" shape="674.12,671.02 672.77,671.22 671.80,671.80 671.22,672.77 671.02,674.12"/>
    </edge>
    <edge id=":nod_2_1_6" function="internal">
        <lane id=":nod_2_1_6_0" index="0" speed="13.89" length="16.25" shape="674.12,667.67 669.30,667.67 666.00,667.67 662.70,667.67 657.88,667.67"/>
    </edge>
    <edge id=":nod_2_1_7" function="internal">
        <lane id=":nod_2_1_7_0" index="0" speed="13.89" length="3.13" shape="674.12,667.67 671.02,667.23"/>
    </edge>
    <edge id=":nod_2_1_20" function="internal">
        <lane id=":nod_2_1_20_0" index="0" speed="13.89" length="12.67" shape="671.02,667.23 669.84,667.06 666.78,665.22 664.94,662.16 664.33,657.88"/>
    </edge>
    <edge id=":nod_2_1_8" function="internal">
        <lane id=":nod_2_1_8_0" index="0" speed="13.89" length="2.45" shape="674.12,667.67 672.87,666.84 672.45,666.00"/>
    </edge>
    <edge id=":nod_2_1_21" function="internal">
        <lane id=":nod_2_1_21_0" index="0" speed="13.89" length="2.45" shape="672.45,666.00 672.87,665.16 674.12,664.33"/>
    </edge>
    <edge id=":nod_2_1_9" function="internal">
        <lane id=":nod_2_1_9_0" index="0" speed="13.89" length="5.00" shape="671.02,657.88 671.22,659.23 671.80,660.20 672.77,660.78 674.12,660.98"/>
    </edge>
    <edge id=":nod_2_1_10" function="internal">
        <lane id=":nod_2_1_10_0" index="0" speed="13.89" length="16.25" shape="671.02,657.88 671.02,662.70 671.02,666.00 671.02,669.30 671.02,674.12"/>
    </edge>
    <edge id=":nod_2_1_11" function="internal">
        <lane id=":nod_2_1_11_0" index="0" speed="13.89" length="16.25" shape="667.67,657.88 667.67,662.70 667.67,666.00 667.67,669.30 667.67,674.12"/>
    </edge>
    <edge id=":nod_2_1_12" function="internal">
        <lane id=":nod_2_1_12_0" index="0" speed="13.89" length="6.85" shape="667.67,657.88 667.06,662.16 665.76,664.33"/>
    </edge>
    <edge id=":nod_2_1_22" function="internal">
        <lane id=":nod_2_1_22_0" index="0" speed="13.89" length="8.95" shape="665.76,664.33 665.22,665.22 662.16,667.06 657.88,667.67"/>
    </edge>
    <edge id=":nod_2_1_13" function="internal">
        <lane id=":nod_2_1_13_0" index="0" speed="13.89" length="2.45" shape="667.67,657.88 666.84,659.13 666.00,659.55"/>
    </edge>
    <edge id=":nod_2_1_23" function="internal">
        <lane id=":nod_2_1_23_0" index="0" speed="13.89" length="2.45" shape="666.00,659.55 665.16,659.13 664.33,657.88"/>
    </edge>
    <edge id=":nod_2_1_14" function="internal">
        <lane id=":nod_2_1_14_0" index="0" speed="13.89" length="5.00" shape="657.88,660.98 659.23,660.78 660.20,660.20 660.78,659.23 660.98,657.88"/>
    </edge>
    <edge id=":nod_2_1_15" function="internal">
        <lane id=":nod_2_1_15_0" index="0" speed="13.89" length="16.25" shape="657.88,664.33 662.70,664.33 666.00,664.33 669.30,664.33 674.12,664.33"/>
    </edge>
    <edge id=":nod_2_1_16" function="internal">
        <lane id=":nod_2_1_16_0" index="0" speed="13.89" length="3.13" shape="657.88,664.33 660.98,664.77"/>
    </edge>
    <edge id=":nod_2_1_24" function="internal">
        <lane id=":nod_2_1_24_0" index="0" speed="13.89" length="12.67" shape="660.98,664.77 662.16,664.94 665.22,666.78 667.06,669.84 667.67,674.12"/>
    </edge>
    <edge id=":nod_2_1_17" function="internal">
        <lane id=":nod_2_1_17_0" index="0" speed="13.89" length="2.45" shape="657.88,664.33 659.13,665.16 659.55,666.00"/>
    </edge>
    <edge id=":nod_2_1_25" function="internal">
        <lane id=":nod_2_1_25_0" index="0" speed="13.89" length="2.45" shape="659.55,666.00 659.13,666.84 657.88,667.67"/>
    </edge>
    <edge id=":nod_2_2_0" function="internal">
        <lane id=":nod_2_2_0_0" index="0" speed="13.89" length="5.00" shape="1326.97,674.12 1326.78,672.77 1326.20,671.80 1325.23,671.22 1323.88,671.02"/>
    </edge>
    <edge id=":nod_2_2_1" function="internal">
        <lane id=":nod_2_2_1_0" index="0" speed="13.89" length="16.25" shape="1326.97,674.12 1326.97,669.30 1326.97,666.00 1326.97,662.70 1326.97,657.88"/>
    </edge>
    <edge id=":nod_2_2_2" function="internal">
        <lane id=":nod_2_2_2_0" index="0" speed="13.89" length="16.25" shape="1330.33,674.12 1330.33,669.30 1330.33,666.00 1330.33,662.70 1330.33,657.88"/>
    </edge>
    <edge id=":nod_2_2_3" function="internal">
        <lane id=":nod_2_2_3_0" index="0" speed="13.89" length="6.85" shape="1330.33,674.12 1330.94,669.84 1332.24,667.67"/>
    </edge>
    <edge id=":nod_2_2_18" function="internal">
        <lane id=":nod_2_2_18_0" index="0" speed="13.89" length="8.95" shape="1332.24,667.67 1332.78,666.78 1335.84,664.94 1340.12,664.33"/>
    </edge>
    <edge id=":nod_2_2_4" function="internal">
        <lane id=":nod_2_2_4_0" index="0" speed="13.89" length="2.45" shape="1330.33,674.12 1331.16,672.87 1332.00,672.45"/>
    </edge>
    <edge id=":nod_2_2_19" function="internal">
        <lane id=":nod_2_2_19_0" index="0" speed="13.89" length="2.45" shape="1332.00,672.45 1332.84,672.87 1333.67,674.12"/>
    </edge>
    <edge id=":nod_2_2_5" function="internal">
        <lane id=":nod_2_2_5_0" index="0" speed="13.89" length="5.00" shape="1340.12,671.02 1338.77,671.22 1337.80,671.80 1337.22,672.77 1337.03,674.12"/>
    </edge>
    <edge id=":nod_2_2_6" function="internal">
        <lane id=":nod_2_2_6_0" index="0" speed="13.89" length="16.25" shape="1340.12,667.67 1335.30,667.67 1332.00,667.67 1328.70,667.67 1323.88,667.67"/>
    </edge>
    <edge id=":nod_2_2_7" function="internal">
        <lane id=":nod_2_2_7_0" index="0" speed="13.89" length="3.13" shape="1340.12,667.67 1337.03,667.23"/>
    </edge>
    <edge id=":nod_2_2_20" function="internal">
        <lane id=":nod_2_2_20_0" index="0" speed="13.89" length="12.67" shape="1337.03,667.23 1335.84,667.06 1332.78,665.22 1330.94,662.16 1330.33,657.88"/>
    </edge>
    <edge id=":nod_2_2_8" function="internal">
        <lane id=":nod_2_2_8_0" index="0" speed="13.89" length="2.45" shape="1340.12,667.67 1338.87,666.84 1338.45,666.00"/>
    </edge>
    <edge id=":nod_2_2_21" function="internal">
        <lane id=":nod_2_2_21_0" index="0" speed="13.89" length="2.45" shape="1338.45,666.00 1338.87,665.16 1340.12,664.33"/>
    </edge>
    <edge id=":nod_2_2_9" function="internal">
        <lane id=":nod_2_2_9_0" index="0" speed="13.89" length="5.00" shape="1337.03,657.88 1337.22,659.23 1337.80,660.20 1338.77,660.78 1340.12,660.98"/>
    </edge>
    <edge id=":nod_2_2_10" function="internal">
        <lane id=":nod_2_2_10_0" index="0" speed="13.89" length="16.25" shape="1337.03,657.88 1337.03,662.70 1337.03,666.00 1337.03,669.30 1337.03,674.12"/>
    </edge>
    <edge id=":nod_2_2_11" function="internal">
        <lane id=":nod_2_2_11_0" index="0" speed="13.89" length="16.25" shape="1333.67,657.88 1333.67,662.70 1333.67,666.00 1333.67,669.30 1333.67,674.12"/>
    </edge>
    <edge id=":nod_2_2_12" function="internal">
        <lane id=":nod_2_2_12_0" index="0" speed="13.89" length="6.85" shape="1333.67,657.88 1333.06,662.16 1331.76,664.33"/>
    </edge>
    <edge id=":nod_2_2_22" function="internal">
        <lane id=":nod_2_2_22_0" index="0" speed="13.89" length="8.95" shape="1331.76,664.33 1331.22,665.22 1328.16,667.06 1323.88,667.67"/>
    </edge>
    <edge id=":nod_2_2_13" function="internal">
        <lane id=":nod_2_2_13_0" index="0" speed="13.89" length="2.45" shape="1333.67,657.88 1332.84,659.13 1332.00,659.55"/>
    </edge>
    <edge id=":nod_2_2_23" function="internal">
        <lane id=":nod_2_2_23_0" index="0" speed="13.89" length="2.45" shape="1332.00,659.55 1331.16,659.13 1330.33,657.88"/>
    </edge>
    <edge id=":nod_2_2_14" function="internal">
        <lane id=":nod_2_2_14_0" index="0" speed="13.89" length="5.00" shape="1323.88,660.98 1325.23,660.78 1326.20,660.20 1326.78,659.23 1326.97,657.88"/>
    </edge>
    <edge id=":nod_2_2_15" function="internal">
        <lane id=":nod_2_2_15_0" index="0" speed="13.89" length="16.25" shape="1323.88,664.33 1328.70,664.33 1332.00,664.33 1335.30,664.33 1340.12,664.33"/>
    </edge>
    <edge id=":nod_2_2_16" function="internal">
        <lane id=":nod_2_2_16_0" index="0" speed="13.89" length="3.13" shape="1323.88,664.33 1326.97,664.77"/>
    </edge>
    <edge id=":nod_2_2_24" function="internal">
        <lane id=":nod_2_2_24_0" index="0" speed="13.89" length="12.67" shape="1326.97,664.77 1328.16,664.94 1331.22,666.78 1333.06,669.84 1333.67,674.12"/>
    </edge>
    <edge id=":nod_2_2_17" function="internal">
        <lane id=":nod_2_2_17_0" index="0" speed="13.89" length="2.45" shape="1323.88,664.33 1325.13,665.16 1325.55,666.00"/>
    </edge>
    <edge id=":nod_2_2_25" function="internal">
        <lane id=":nod_2_2_25_0" index="0" speed="13.89" length="2.45" shape="1325.55,666.00 1325.13,666.84 1323.88,667.67"/>
    </edge>
    <edge id=":nod_2_3_0" function="internal">
        <lane id=":nod_2_3_0_0" index="0" speed="13.89" length="4.89" shape="1998.00,664.33 1999.26,665.16 1999.67,666.00 1999.26,666.84 1998.00,667.67"/>
    </edge>
    <edge id=":nod_3_1_0" function="internal">
        <lane id=":nod_3_1_0_0" index="0" speed="13.89" length="4.89" shape="664.33,0.00 665.16,-1.26 666.00,-1.67 666.84,-1.26 667.67,0.00"/>
    </edge>
    <edge id=":nod_3_2_0" function="internal">
        <lane id=":nod_3_2_0_0" index="0" speed="13.89" length="4.89" shape="1330.33,0.00 1331.16,-1.26 1332.00,-1.67 1332.84,-1.26 1333.67,0.00"/>
    </edge>

    <edge id="edg_0_1_S" from="nod_0_1" to="nod_1_1" priority="10" type="secondary.urban">
        <lane id="edg_0_1_S_0" index="0" speed="13.89" length="657.88" width="3.25" shape="660.98,1998.00 660.98,1340.12"/>
        <lane id="edg_0_1_S_1" index="1" speed="13.89" length="657.88" width="3.25" shape="664.33,1998.00 664.33,1340.12"/>
    </edge>
    <edge id="edg_0_2_S" from="nod_0_2" to="nod_1_2" priority="10" type="secondary.urban">
        <lane id="edg_0_2_S_0" index="0" speed="13.89" length="657.88" width="3.25" shape="1326.97,1998.00 1326.97,1340.12"/>
        <lane id="edg_0_2_S_1" index="1" speed="13.89" length="657.88" width="3.25" shape="1330.33,1998.00 1330.33,1340.12"/>
    </edge>
    <edge id="edg_1_0_E" from="nod_1_0" to="nod_1_1" priority="10" type="secondary.urban">
        <lane id="edg_1_0_E_0" index="0" speed="13.89" length="657.88" width="3.25" shape="0.00,1326.97 657.88,1326.97"/>
        <lane id="edg_1_0_E_1" index="1" speed="13.89" length="657.88" width="3.25" shape="0.00,1330.33 657.88,1330.33"/>
    </edge>
    <edge id="edg_1_1_E" from="nod_1_1" to="nod_1_2" priority="10" type="secondary.urban">
        <lane id="edg_1_1_E_0" index="0" speed="13.89" length="649.75" width="3.25" shape="674.12,1326.97 1323.88,1326.97"/>
        <lane id="edg_1_1_E_1" index="1" speed="13.89" length="649.75" width="3.25" shape="674.12,1330.33 1323.88,1330.33"/>
    </edge>
    <edge id="edg_1_1_N" from="nod_1_1" to="nod_0_1" priority="10" type="secondary.urban">
        <lane id="edg_1_1_N_0" index="0" speed="13.89" length="657.88" width="3.25" shape="671.02,1340.12 671.02,1998.00"/>
        <lane id="edg_1_1_N_1" index="1" speed="13.89" length="657.88" width="3.25" shape="667.67,1340.12 667.67,1998.00"/>
    </edge>
    <edge id="edg_1_1_S" from="nod_1_1" to="nod_2_1" priority="10" type="secondary.urban">
        <lane id="edg_1_1_S_0" index="0" speed="13.89" length="649.75" width="3.25" shape="660.98,1323.88 660.98,674.12"/>
        <lane id="edg_1_1_S_1" index="1" speed="13.89" length="649.75" width="3.25" shape="664.33,1323.88 664.33,674.12"/>
    </edge>
    <edge id="edg_1_1_W" from="nod_1_1" to="nod_1_0" priority="10" type="secondary.urban">
        <lane id="edg_1_1_W_0" index="0" speed="13.89" length="657.88" width="3.25" shape="657.88,1337.03 0.00,1337.03"/>
        <lane id="edg_1_1_W_1" index="1" speed="13.89" length="657.88" width="3.25" shape="657.88,1333.67 0.00,1333.67"/>
    </edge>
    <edge id="edg_1_2_E" from="nod_1_2" to="nod_1_3" priority="10" type="secondary.urban">
        <lane id="edg_1_2_E_0" index="0" speed="13.89" length="657.88" width="3.25" shape="1340.12,1326.97 1998.00,1326.97"/>
        <lane id="edg_1_2_E_1" index="1" speed="13.89" length="657.88" width="3.25" shape="1340.12,1330.33 1998.00,1330.33"/>
    </edge>
    <edge id="edg_1_2_N" from="nod_1_2" to="nod_0_2" priority="10" type="secondary.urban">
        <lane id="edg_1_2_N_0" index="0" speed="13.89" length="657.88" width="3.25" shape="1337.03,1340.12 1337.03,1998.00"/>
        <lane id="edg_1_2_N_1" index="1" speed="13.89" length="657.88" width="3.25" shape="1333.67,1340.12 1333.67,1998.00"/>
    </edge>
    <edge id="edg_1_2_S" from="nod_1_2" to="nod_2_2" priority="10" type="secondary.urban">
        <lane id="edg_1_2_S_0" index="0" speed="13.89" length="649.75" width="3.25" shape="1326.97,1323.88 1326.97,674.12"/>
        <lane id="edg_1_2_S_1" index="1" speed="13.89" length="649.75" width="3.25" shape="1330.33,1323.88 1330.33,674.12"/>
    </edge>
    <edge id="edg_1_2_W" from="nod_1_2" to="nod_1_1" priority="10" type="secondary.urban">
        <lane id="edg_1_2_W_0" index="0" speed="13.89" length="649.75" width="3.25" shape="1323.88,1337.03 674.12,1337.03"/>
        <lane id="edg_1_2_W_1" index="1" speed="13.89" length="649.75" width="3.25" shape="1323.88,1333.67 674.12,1333.67"/>
    </edge>
    <edge id="edg_1_3_W" from="nod_1_3" to="nod_1_2" priority="10" type="secondary.urban">
        <lane id="edg_1_3_W_0" index="0" speed="13.89" length="657.88" width="3.25" shape="1998.00,1337.03 1340.12,1337.03"/>
        <lane id="edg_1_3_W_1" index="1" speed="13.89" length="657.88" width="3.25" shape="1998.00,1333.67 1340.12,1333.67"/>
    </edge>
    <edge id="edg_2_0_E" from="nod_2_0" to="nod_2_1" priority="10" type="secondary.urban">
        <lane id="edg_2_0_E_0" index="0" speed="13.89" length="657.88" width="3.25" shape="0.00,660.98 657.88,660.98"/>
        <lane id="edg_2_0_E_1" index="1" speed="13.89" length="657.88" width="3.25" shape="0.00,664.33 657.88,664.33"/>
    </edge>
    <edge id="edg_2_1_E" from="nod_2_1" to="nod_2_2" priority="10" type="secondary.urban">
        <lane id="edg_2_1_E_0" index="0" speed="13.89" length="649.75" width="3.25" shape="674.12,660.98 1323.88,660.98"/>
        <lane id="edg_2_1_E_1" index="1" speed="13.89" length="649.75" width="3.25" shape="674.12,664.33 1323.88,664.33"/>
    </edge>
    <edge id="edg_2_1_N" from="nod_2_1" to="nod_1_1" priority="10" type="secondary.urban">
        <lane id="edg_2_1_N_0" index="0" speed="13.89" length="649.75" width="3.25" shape="671.02,674.12 671.02,1323.88"/>
        <lane id="edg_2_1_N_1" index="1" speed="13.89" length="649.75" width="3.25" shape="667.67,674.12 667.67,1323.88"/>
    </edge>
    <edge id="edg_2_1_S" from="nod_2_1" to="nod_3_1" priority="10" type="secondary.urban">
        <lane id="edg_2_1_S_0" index="0" speed="13.89" length="657.88" width="3.25" shape="660.98,657.88 660.98,0.00"/>
        <lane id="edg_2_1_S_1" index="1" speed="13.89" length="657.88" width="3.25" shape="664.33,657.88 664.33,0.00"/>
    </edge>
    <edge id="edg_2_1_W" from="nod_2_1" to="nod_2_0" priority="10" type="secondary.urban">
        <lane id="edg_2_1_W_0" index="0" speed="13.89" length="657.88" width="3.25" shape="657.88,671.02 0.00,671.02"/>
        <lane id="edg_2_1_W_1" index="1" speed="13.89" length="657.88" width="3.25" shape="657.88,667.67 0.00,667.67"/>
    </edge>
    <edge id="edg_2_2_E" from="nod_2_2" to="nod_2_3" priority="10" type="secondary.urban">
        <lane id="edg_2_2_E_0" index="0" speed="13.89" length="657.88" width="3.25" shape="1340.12,660.98 1998.00,660.98"/>
        <lane id="edg_2_2_E_1" index="1" speed="13.89" length="657.88" width="3.25" shape="1340.12,664.33 1998.00,664.33"/>
    </edge>
    <edge id="edg_2_2_N" from="nod_2_2" to="nod_1_2" priority="10" type="secondary.urban">
        <lane id="edg_2_2_N_0" index="0" speed="13.89" length="649.75" width="3.25" shape="1337.03,674.12 1337.03,1323.88"/>