<?xml version="1.0" encoding="UTF-8"?>

<!-- generated on Thu May 29 20:20:01 2014 by SUMO netconvert Version 0.19.0
<?xml version="1.0" encoding="UTF-8"?>

<configuration xmlns:xsi="http://www.w3.org/2001/XMLSchema-instance" xsi:noNamespaceSchemaLocation="http://sumo-sim.org/xsd/netconvertConfiguration.xsd">

    <input>
        <node-files value="GridNetwork.nod.xml"/>
        <edge-files value="GridNetwork.edg.xml"/>
        <type-files value="GridNetwork.typ.xml"/>
    </input>

    <output>
        <output-file value="GridNetwork.net.xml"/>
    </output>

    <report>
        <verbose value="true"/>
    </report>

</configuration>
-->

<net version="0.13" xmlns:xsi="http://www.w3.org/2001/XMLSchema-instance" xsi:noNamespaceSchemaLocation="http://sumo-sim.org/xsd/net_file.xsd">

    <location netOffset="750.00,750.00" convBoundary="0.00,0.00,1500.00,1500.00" origBoundary="-750.00,-750.00,750.00,750.00" projParameter="!"/>

    <edge id=":nod_0_1_0" function="internal">
        <lane id=":nod_0_1_0_0" index="0" speed="13.89" length="4.89" shape="251.68,1500.00 250.84,1501.26 250.00,1501.67 249.16,1501.26 248.32,1500.00"/>
    </edge>
    <edge id=":nod_0_2_0" function="internal">
        <lane id=":nod_0_2_0_0" index="0" speed="13.89" length="4.89" shape="501.68,1500.00 500.84,1501.26 500.00,1501.67 499.16,1501.26 498.32,1500.00"/>
    </edge>
    <edge id=":nod_0_3_0" function="internal">
        <lane id=":nod_0_3_0_0" index="0" speed="13.89" length="4.89" shape="751.67,1500.00 750.84,1501.26 750.00,1501.67 749.16,1501.26 748.33,1500.00"/>
    </edge>
    <edge id=":nod_0_4_0" function="internal">
        <lane id=":nod_0_4_0_0" index="0" speed="13.89" length="4.89" shape="1001.67,1500.00 1000.84,1501.26 1000.00,1501.67 999.16,1501.26 998.33,1500.00"/>
    </edge>
    <edge id=":nod_0_5_0" function="internal">
        <lane id=":nod_0_5_0_0" index="0" speed="13.89" length="4.89" shape="1251.67,1500.00 1250.84,1501.26 1250.00,1501.67 1249.16,1501.26 1248.33,1500.00"/>
    </edge>
    <edge id=":nod_1_0_0" function="internal">
        <lane id=":nod_1_0_0_0" index="0" speed="13.89" length="4.89" shape="0.00,1251.67 -1.26,1250.84 -1.67,1250.00 -1.26,1249.16 0.00,1248.33"/>
    </edge>
    <edge id=":nod_1_1_0" function="internal">
        <lane id=":nod_1_1_0_0" index="0" speed="13.89" length="5.00" shape="244.97,1258.12 244.78,1256.77 244.20,1255.80 243.23,1255.22 241.88,1255.03"/>
    </edge>
    <edge id=":nod_1_1_1" function="internal">
        <lane id=":nod_1_1_1_0" index="0" speed="13.89" length="16.25" shape="244.97,1258.12 244.97,1253.30 244.97,1250.00 244.98,1246.70 244.97,1241.88"/>
        <lane id=":nod_1_1_1_1" index="1" speed="13.89" length="16.25" shape="248.32,1258.12 248.32,1253.30 248.32,1250.00 248.32,1246.70 248.32,1241.88"/>
    </edge>
    <edge id=":nod_1_1_3" function="internal">
        <lane id=":nod_1_1_3_0" index="0" speed="13.89" length="6.85" shape="248.32,1258.12 248.94,1253.84 250.24,1251.67"/>
    </edge>
    <edge id=":nod_1_1_4" function="internal">
        <lane id=":nod_1_1_4_0" index="0" speed="13.89" length="2.45" shape="248.32,1258.12 249.16,1256.87 250.00,1256.45"/>
    </edge>
    <edge id=":nod_1_1_18" function="internal">
        <lane id=":nod_1_1_18_0" index="0" speed="13.89" length="8.95" shape="250.24,1251.67 250.77,1250.78 253.84,1248.94 258.12,1248.33"/>
    </edge>
    <edge id=":nod_1_1_19" function="internal">
        <lane id=":nod_1_1_19_0" index="0" speed="13.89" length="2.45" shape="250.00,1256.45 250.84,1256.87 251.68,1258.12"/>
    </edge>
    <edge id=":nod_1_1_5" function="internal">
        <lane id=":nod_1_1_5_0" index="0" speed="13.89" length="5.00" shape="258.12,1255.03 256.77,1255.22 255.80,1255.80 255.22,1256.77 255.03,1258.12"/>
    </edge>
    <edge id=":nod_1_1_6" function="internal">
        <lane id=":nod_1_1_6_0" index="0" speed="13.89" length="16.25" shape="258.12,1251.67 253.30,1251.67 250.00,1251.67 246.70,1251.67 241.88,1251.67"/>
    </edge>
    <edge id=":nod_1_1_7" function="internal">
        <lane id=":nod_1_1_7_0" index="0" speed="13.89" length="3.13" shape="258.12,1251.67 255.03,1251.23"/>
    </edge>
    <edge id=":nod_1_1_8" function="internal">
        <lane id=":nod_1_1_8_0" index="0" speed="13.89" length="2.45" shape="258.12,1251.67 256.87,1250.84 256.45,1250.00"/>
    </edge>
    <edge id=":nod_1_1_20" function="internal">
        <lane id=":nod_1_1_20_0" index="0" speed="13.89" length="12.67" shape="255.03,1251.23 253.84,1251.06 250.78,1249.22 248.94,1246.16 248.32,1241.88"/>
    </edge>
    <edge id=":nod_1_1_21" function="internal">
        <lane id=":nod_1_1_21_0" index="0" speed="13.89" length="2.45" shape="256.45,1250.00 256.87,1249.16 258.12,1248.33"/>
    </edge>
    <edge id=":nod_1_1_9" function="internal">
        <lane id=":nod_1_1_9_0" index="0" speed="13.89" length="5.00" shape="255.03,1241.88 255.22,1243.23 255.80,1244.20 256.77,1244.78 258.12,1244.97"/>
    </edge>
    <edge id=":nod_1_1_10" function="internal">
        <lane id=":nod_1_1_10_0" index="0" speed="13.89" length="16.25" shape="255.03,1241.88 255.03,1246.70 255.03,1250.00 255.02,1253.30 255.03,1258.12"/>
        <lane id=":nod_1_1_10_1" index="1" speed="13.89" length="16.25" shape="251.68,1241.88 251.68,1246.70 251.68,1250.00 251.68,1253.30 251.68,1258.12"/>
    </edge>
    <edge id=":nod_1_1_12" function="internal">
        <lane id=":nod_1_1_12_0" index="0" speed="13.89" length="6.85" shape="251.68,1241.88 251.06,1246.16 249.76,1248.33"/>
    </edge>
    <edge id=":nod_1_1_13" function="internal">
        <lane id=":nod_1_1_13_0" index="0" speed="13.89" length="2.45" shape="251.68,1241.88 250.84,1243.13 250.00,1243.55"/>
    </edge>
    <edge id=":nod_1_1_22" function="internal">
        <lane id=":nod_1_1_22_0" index="0" speed="13.89" length="8.95" shape="249.76,1248.33 249.23,1249.22 246.16,1251.06 241.88,1251.67"/>
    </edge>
    <edge id=":nod_1_1_23" function="internal">
        <lane id=":nod_1_1_23_0" index="0" speed="13.89" length="2.45" shape="250.00,1243.55 249.16,1243.13 248.32,1241.88"/>
    </edge>
    <edge id=":nod_1_1_14" function="internal">
        <lane id=":nod_1_1_14_0" index="0" speed="13.89" length="5.00" shape="241.88,1244.97 243.23,1244.78 244.20,1244.20 244.78,1243.23 244.97,1241.88"/>
    </edge>
    <edge id=":nod_1_1_15" function="internal">
        <lane id=":nod_1_1_15_0" index="0" speed="13.89" length="16.25" shape="241.88,1248.33 246.70,1248.33 250.00,1248.33 253.30,1248.33 258.12,1248.33"/>
    </edge>
    <edge id=":nod_1_1_16" function="internal">
        <lane id=":nod_1_1_16_0" index="0" speed="13.89" length="3.13" shape="241.88,1248.33 244.97,1248.77"/>
    </edge>
    <edge id=":nod_1_1_17" function="internal">
        <lane id=":nod_1_1_17_0" index="0" speed="13.89" length="2.45" shape="241.88,1248.33 243.13,1249.16 243.55,1250.00"/>
    </edge>
    <edge id=":nod_1_1_24" function="internal">
        <lane id=":nod_1_1_24_0" index="0" speed="13.89" length="12.67" shape="244.97,1248.77 246.16,1248.94 249.23,1250.78 251.06,1253.84 251.68,1258.12"/>
    </edge>
    <edge id=":nod_1_1_25" function="internal">
        <lane id=":nod_1_1_25_0" index="0" speed="13.89" length="2.45" shape="243.55,1250.00 243.13,1250.84 241.88,1251.67"/>
    </edge>
    <edge id=":nod_1_2_0" function="internal">
        <lane id=":nod_1_2_0_0" index="0" speed="13.89" length="5.00" shape="494.98,1258.12 494.78,1256.77 494.20,1255.80 493.23,1255.22 491.88,1255.03"/>
    </edge>
    <edge id=":nod_1_2_1" function="internal">
        <lane id=":nod_1_2_1_0" index="0" speed="13.89" length="16.25" shape="494.98,1258.12 494.98,1253.30 494.98,1250.00 494.98,1246.70 494.98,1241.88"/>
        <lane id=":nod_1_2_1_1" index="1" speed="13.89" length="16.25" shape="498.32,1258.12 498.32,1253.30 498.32,1250.00 498.33,1246.70 498.32,1241.88"/>
    </edge>
    <edge id=":nod_1_2_3" function="internal">
        <lane id=":nod_1_2_3_0" index="0" speed="13.89" length="6.85" shape="498.32,1258.12 498.94,1253.84 500.24,1251.67"/>
    </edge>
    <edge id=":nod_1_2_4" function="internal">
        <lane id=":nod_1_2_4_0" index="0" speed="13.89" length="2.45" shape="498.32,1258.12 499.16,1256.87 500.00,1256.45"/>
    </edge>
    <edge id=":nod_1_2_18" function="internal">
        <lane id=":nod_1_2_18_0" index="0" speed="13.89" length="8.95" shape="500.24,1251.67 500.77,1250.78 503.84,1248.94 508.12,1248.33"/>
    </edge>
    <edge id=":nod_1_2_19" function="internal">
        <lane id=":nod_1_2_19_0" index="0" speed="13.89" length="2.45" shape="500.00,1256.45 500.84,1256.87 501.68,1258.12"/>
    </edge>
    <edge id=":nod_1_2_5" function="internal">
        <lane id=":nod_1_2_5_0" index="0" speed="13.89" length="5.00" shape="508.12,1255.03 506.77,1255.22 505.80,1255.80 505.22,1256.77 505.02,1258.12"/>
    </edge>
    <edge id=":nod_1_2_6" function="internal">
        <lane id=":nod_1_2_6_0" index="0" speed="13.89" length="16.25" shape="508.12,1251.67 503.30,1251.67 500.00,1251.67 496.70,1251.67 491.88,1251.67"/>
    </edge>
    <edge id=":nod_1_2_7" function="internal">
        <lane id=":nod_1_2_7_0" index="0" speed="13.89" length="3.13" shape="508.12,1251.67 505.02,1251.23"/>
    </edge>
    <edge id=":nod_1_2_8" function="internal">
        <lane id=":nod_1_2_8_0" index="0" speed="13.89" length="2.45" shape="508.12,1251.67 506.87,1250.84 506.45,1250.00"/>
    </edge>
    <edge id=":nod_1_2_20" function="internal">
        <lane id=":nod_1_2_20_0" index="0" speed="13.89" length="12.67" shape="505.02,1251.23 503.84,1251.06 500.78,1249.22 498.94,1246.16 498.32,1241.88"/>
    </edge>
    <edge id=":nod_1_2_21" function="internal">
        <lane id=":nod_1_2_21_0" index="0" speed="13.89" length="2.45" shape="506.45,1250.00 506.87,1249.16 508.12,1248.33"/>
    </edge>
    <edge id=":nod_1_2_9" function="internal">
        <lane id=":nod_1_2_9_0" index="0" speed="13.89" length="5.00" shape="505.02,1241.88 505.22,1243.23 505.80,1244.20 506.77,1244.78 508.12,1244.97"/>
    </edge>
    <edge id=":nod_1_2_10" function="internal">
        <lane id=":nod_1_2_10_0" index="0" speed="13.89" length="16.25" shape="505.02,1241.88 505.02,1246.70 505.02,1250.00 505.02,1253.30 505.02,1258.12"/>
        <lane id=":nod_1_2_10_1" index="1" speed="13.89" length="16.25" shape="501.68,1241.88 501.68,1246.70 501.68,1250.00 501.67,1253.30 501.68,1258.12"/>
    </edge>
    <edge id=":nod_1_2_12" function="internal">
        <lane id=":nod_1_2_12_0" index="0" speed="13.89" length="6.85" shape="501.68,1241.88 501.06,1246.16 499.76,1248.33"/>
    </edge>
    <edge id=":nod_1_2_13" function="internal">
        <lane id=":nod_1_2_13_0" index="0" speed="13.89" length="2.45" shape="501.68,1241.88 500.84,1243.13 500.00,1243.55"/>
    </edge>
    <edge id=":nod_1_2_22" function="internal">
        <lane id=":nod_1_2_22_0" index="0" speed="13.89" length="8.95" shape="499.76,1248.33 499.23,1249.22 496.16,1251.06 491.88,1251.67"/>
    </edge>
    <edge id=":nod_1_2_23" function="internal">
        <lane id=":nod_1_2_23_0" index="0" speed="13.89" length="2.45" shape="500.00,1243.55 499.16,1243.13 498.32,1241.88"/>
    </edge>
    <edge id=":nod_1_2_14" function="internal">
        <lane id=":nod_1_2_14_0" index="0" speed="13.89" length="5.00" shape="491.88,1244.97 493.23,1244.78 494.20,1244.20 494.78,1243.23 494.98,1241.88"/>
    </edge>
    <edge id=":nod_1_2_15" function="internal">
        <lane id=":nod_1_2_15_0" index="0" speed="13.89" length="16.25" shape="491.88,1248.33 496.70,1248.33 500.00,1248.33 503.30,1248.33 508.12,1248.33"/>
    </edge>
    <edge id=":nod_1_2_16" function="internal">
        <lane id=":nod_1_2_16_0" index="0" speed="13.89" length="3.13" shape="491.88,1248.33 494.98,1248.77"/>
    </edge>
    <edge id=":nod_1_2_17" function="internal">
        <lane id=":nod_1_2_17_0" index="0" speed="13.89" length="2.45" shape="491.88,1248.33 493.13,1249.16 493.55,1250.00"/>
    </edge>
    <edge id=":nod_1_2_24" function="internal">
        <lane id=":nod_1_2_24_0" index="0" speed="13.89" length="12.67" shape="494.98,1248.77 496.16,1248.94 499.22,1250.78 501.06,1253.84 501.68,1258.12"/>
    </edge>
    <edge id=":nod_1_2_25" function="internal">
        <lane id=":nod_1_2_25_0" index="0" speed="13.89" length="2.45" shape="493.55,1250.00 493.13,1250.84 491.88,1251.67"/>
    </edge>
    <edge id=":nod_1_3_0" function="internal">
        <lane id=":nod_1_3_0_0" index="0" speed="13.89" length="5.00" shape="744.98,1258.12 744.78,1256.77 744.20,1255.80 743.23,1255.22 741.88,1255.03"/>
    </edge>
    <edge id=":nod_1_3_1" function="internal">
        <lane id=":nod_1_3_1_0" index="0" speed="13.89" length="16.25" shape="744.98,1258.12 744.98,1253.30 744.98,1250.00 744.98,1246.70 744.98,1241.88"/>
        <lane id=":nod_1_3_1_1" index="1" speed="13.89" length="16.25" shape="748.33,1258.12 748.33,1253.30 748.33,1250.00 748.33,1246.70 748.33,1241.88"/>
    </edge>
    <edge id=":nod_1_3_3" function="internal">
        <lane id=":nod_1_3_3_0" index="0" speed="13.89" length="6.85" shape="748.33,1258.12 748.94,1253.84 750.24,1251.67"/>
    </edge>
    <edge id=":nod_1_3_4" function="internal">
        <lane id=":nod_1_3_4_0" index="0" speed="13.89" length="2.45" shape="748.33,1258.12 749.16,1256.87 750.00,1256.45"/>
    </edge>
    <edge id=":nod_1_3_18" function="internal">
        <lane id=":nod_1_3_18_0" index="0" speed="13.89" length="8.95" shape="750.24,1251.67 750.78,1250.78 753.84,1248.94 758.12,1248.33"/>
    </edge>
    <edge id=":nod_1_3_19" function="internal">
        <lane id=":nod_1_3_19_0" index="0" speed="13.89" length="2.45" shape="750.00,1256.45 750.84,1256.87 751.67,1258.12"/>
    </edge>
    <edge id=":nod_1_3_5" function="internal">
        <lane id=":nod_1_3_5_0" index="0" speed="13.89" length="5.00" shape="758.12,1255.03 756.77,1255.22 755.80,1255.80 755.22,1256.77 755.02,1258.12"/>
    </edge>
    <edge id=":nod_1_3_6" function="internal">
        <lane id=":nod_1_3_6_0" index="0" speed="13.89" length="16.25" shape="758.12,1251.67 753.30,1251.67 750.00,1251.67 746.70,1251.67 741.88,1251.67"/>
    </edge>
    <edge id=":nod_1_3_7" function="internal">
        <lane id=":nod_1_3_7_0" index="0" speed="13.89" length="3.13" shape="758.12,1251.67 755.02,1251.23"/>
    </edge>
    <edge id=":nod_1_3_8" function="internal">
        <lane id=":nod_1_3_8_0" index="0" speed="13.89" length="2.45" shape="758.12,1251.67 756.87,1250.84 756.45,1250.00"/>
    </edge>
    <edge id=":nod_1_3_20" function="internal">
        <lane id=":nod_1_3_20_0" index="0" speed="13.89" length="12.67" shape="755.02,1251.23 753.84,1251.06 750.78,1249.22 748.94,1246.16 748.33,1241.88"/>
    </edge>
    <edge id=":nod_1_3_21" function="internal">
        <lane id=":nod_1_3_21_0" index="0" speed="13.89" length="2.45" shape="756.45,1250.00 756.87,1249.16 758.12,1248.33"/>
    </edge>
    <edge id=":nod_1_3_9" function="internal">
        <lane id=":nod_1_3_9_0" index="0" speed="13.89" length="5.00" shape="755.02,1241.88 755.22,1243.23 755.80,1244.20 756.77,1244.78 758.12,1244.97"/>
    </edge>
    <edge id=":nod_1_3_10" function="internal">
        <lane id=":nod_1_3_10_0" index="0" speed="13.89" length="16.25" shape="755.02,1241.88 755.02,1246.70 755.02,1250.00 755.02,1253.30 755.02,1258.12"/>
        <lane id=":nod_1_3_10_1" index="1" speed="13.89" length="16.25" shape="751.67,1241.88 751.67,1246.70 751.67,1250.00 751.67,1253.30 751.67,1258.12"/>
    </edge>
    <edge id=":nod_1_3_12" function="internal">
        <lane id=":nod_1_3_12_0" index="0" speed="13.89" length="6.85" shape="751.67,1241.88 751.06,1246.16 749.76,1248.33"/>
    </edge>
    <edge id=":nod_1_3_13" function="internal">
        <lane id=":nod_1_3_13_0" index="0" speed="13.89" length="2.45" shape="751.67,1241.88 750.84,1243.13 750.00,1243.55"/>
    </edge>
    <edge id=":nod_1_3_22" function="internal">
        <lane id=":nod_1_3_22_0" index="0" speed="13.89" length="8.95" shape="749.76,1248.33 749.22,1249.22 746.16,1251.06 741.88,1251.67"/>
    </edge>
    <edge id=":nod_1_3_23" function="internal">
        <lane id=":nod_1_3_23_0" index="0" speed="13.89" length="2.45" shape="750.00,1243.55 749.16,1243.13 748.33,1241.88"/>
    </edge>
    <edge id=":nod_1_3_14" function="internal">
        <lane id=":nod_1_3_14_0" index="0" speed="13.89" length="5.00" shape="741.88,1244.97 743.23,1244.78 744.20,1244.20 744.78,1243.23 744.98,1241.88"/>
    </edge>
    <edge id=":nod_1_3_15" function="internal">
        <lane id=":nod_1_3_15_0" index="0" speed="13.89" length="16.25" shape="741.88,1248.33 746.70,1248.33 750.00,1248.33 753.30,1248.33 758.12,1248.33"/>
    </edge>
    <edge id=":nod_1_3_16" function="internal">
        <lane id=":nod_1_3_16_0" index="0" speed="13.89" length="3.13" shape="741.88,1248.33 744.98,1248.77"/>
    </edge>
    <edge id=":nod_1_3_17" function="internal">
        <lane id=":nod_1_3_17_0" index="0" speed="13.89" length="2.45" shape="741.88,1248.33 743.13,1249.16 743.55,1250.00"/>
    </edge>
    <edge id=":nod_1_3_24" function="internal">
        <lane id=":nod_1_3_24_0" index="0" speed="13.89" length="12.67" shape="744.98,1248.77 746.16,1248.94 749.22,1250.78 751.06,1253.84 751.67,1258.12"/>
    </edge>
    <edge id=":nod_1_3_25" function="internal">
        <lane id=":nod_1_3_25_0" index="0" speed="13.89" length="2.45" shape="743.55,1250.00 743.13,1250.84 741.88,1251.67"/>
    </edge>
    <edge id=":nod_1_4_0" function="internal">
        <lane id=":nod_1_4_0_0" index="0" speed="13.89" length="5.00" shape="994.98,1258.12 994.78,1256.77 994.20,1255.80 993.23,1255.22 991.88,1255.03"/>
    </edge>
    <edge id=":nod_1_4_1" function="internal">
        <lane id=":nod_1_4_1_0" index="0" speed="13.89" length="16.25" shape="994.98,1258.12 994.98,1253.30 994.98,1250.00 994.97,1246.70 994.98,1241.88"/>
        <lane id=":nod_1_4_1_1" index="1" speed="13.89" length="16.25" shape="998.33,1258.12 998.33,1253.30 998.33,1250.00 998.33,1246.70 998.33,1241.88"/>
    </edge>
    <edge id=":nod_1_4_3" function="internal">
        <lane id=":nod_1_4_3_0" index="0" speed="13.89" length="6.85" shape="998.33,1258.12 998.94,1253.84 1000.24,1251.67"/>
    </edge>
    <edge id=":nod_1_4_4" function="internal">
        <lane id=":nod_1_4_4_0" index="0" speed="13.89" length="2.45" shape="998.33,1258.12 999.16,1256.87 1000.00,1256.45"/>
    </edge>
    <edge id=":nod_1_4_18" function="internal">
        <lane id=":nod_1_4_18_0" index="0" speed="13.89" length="8.95" shape="1000.24,1251.67 1000.78,1250.78 1003.84,1248.94 1008.12,1248.33"/>
    </edge>
    <edge id=":nod_1_4_19" function="internal">
        <lane id=":nod_1_4_19_0" index="0" speed="13.89" length="2.45" shape="1000.00,1256.45 1000.84,1256.87 1001.67,1258.12"/>
    </edge>
    <edge id=":nod_1_4_5" function="internal">
        <lane id=":nod_1_4_5_0" index="0" speed="13.89" length="5.00" shape="1008.12,1255.03 1006.77,1255.22 1005.80,1255.80 1005.22,1256.77 1005.02,1258.12"/>
    </edge>
    <edge id=":nod_1_4_6" function="internal">
        <lane id=":nod_1_4_6_0" index="0" speed="13.89" length="16.25" shape="1008.12,1251.67 1003.30,1251.67 1000.00,1251.67 996.70,1251.67 991.88,1251.67"/>
    </edge>
    <edge id=":nod_1_4_7" function="internal">
        <lane id=":nod_1_4_7_0" index="0" speed="13.89" length="3.13" shape="1008.12,1251.67 1005.02,1251.23"/>
    </edge>
    <edge id=":nod_1_4_8" function="internal">
        <lane id=":nod_1_4_8_0" index="0" speed="13.89" length="2.45" shape="1008.12,1251.67 1006.87,1250.84 1006.45,1250.00"/>
    </edge>
    <edge id=":nod_1_4_20" function="internal">
        <lane id=":nod_1_4_20_0" index="0" speed="13.89" length="12.67" shape="1005.02,1251.23 1003.84,1251.06 1000.78,1249.22 998.94,1246.16 998.33,1241.88"/>
    </edge>
    <edge id=":nod_1_4_21" function="internal">
        <lane id=":nod_1_4_21_0" index="0" speed="13.89" length="2.45" shape="1006.45,1250.00 1006.87,1249.16 1008.12,1248.33"/>
    </edge>
    <edge id=":nod_1_4_9" function="internal">
        <lane id=":nod_1_4_9_0" index="0" speed="13.89" length="5.00" shape="1005.02,1241.88 1005.22,1243.23 1005.80,1244.20 1006.77,1244.78 1008.12,1244.97"/>
    </edge>
    <edge id=":nod_1_4_10" function="internal">
        <lane id=":nod_1_4_10_0" index="0" speed="13.89" length="16.25" shape="1005.02,1241.88 1005.02,1246.70 1005.02,1250.00 1005.03,1253.30 1005.02,1258.12"/>
        <lane id=":nod_1_4_10_1" index="1" speed="13.89" length="16.25" shape="1001.67,1241.88 1001.67,1246.70 1001.67,1250.00 1001.67,1253.30 1001.67,1258.12"/>
    </edge>
    <edge id=":nod_1_4_12" function="internal">
        <lane id=":nod_1_4_12_0" index="0" speed="13.89" length="6.85" shape="1001.67,1241.88 1001.06,1246.16 999.76,1248.33"/>
    </edge>
    <edge id=":nod_1_4_13" function="internal">
        <lane id=":nod_1_4_13_0" index="0" speed="13.89" length="2.45" shape="1001.67,1241.88 1000.84,1243.13 1000.00,1243.55"/>
    </edge>
    <edge id=":nod_1_4_22" function="internal">
        <lane id=":nod_1_4_22_0" index="0" speed="13.89" length="8.95" shape="999.76,1248.33 999.22,1249.22 996.16,1251.06 991.88,1251.67"/>
    </edge>
    <edge id=":nod_1_4_23" function="internal">
        <lane id=":nod_1_4_23_0" index="0" speed="13.89" length="2.45" shape="1000.00,1243.55 999.16,1243.13 998.33,1241.88"/>
    </edge>
    <edge id=":nod_1_4_14" function="internal">
        <lane id=":nod_1_4_14_0" index="0" speed="13.89" length="5.00" shape="991.88,1244.97 993.23,1244.78 994.20,1244.20 994.78,1243.23 994.98,1241.88"/>
    </edge>
    <edge id=":nod_1_4_15" function="internal">
        <lane id=":nod_1_4_15_0" index="0" speed="13.89" length="16.25" shape="991.88,1248.33 996.70,1248.33 1000.00,1248.33 1003.30,1248.33 1008.12,1248.33"/>
    </edge>
    <edge id=":nod_1_4_16" function="internal">
        <lane id=":nod_1_4_16_0" index="0" speed="13.89" length="3.13" shape="991.88,1248.33 994.98,1248.77"/>
    </edge>
    <edge id=":nod_1_4_17" function="internal">
        <lane id=":nod_1_4_17_0" index="0" speed="13.89" length="2.45" shape="991.88,1248.33 993.13,1249.16 993.55,1250.00"/>
    </edge>
    <edge id=":nod_1_4_24" function="internal">
        <lane id=":nod_1_4_24_0" index="0" speed="13.89" length="12.67" shape="994.98,1248.77 996.16,1248.94 999.22,1250.78 1001.06,1253.84 1001.67,1258.12"/>
    </edge>
    <edge id=":nod_1_4_25" function="internal">
        <lane id=":nod_1_4_25_0" index="0" speed="13.89" length="2.45" shape="993.55,1250.00 993.13,1250.84 991.88,1251.67"/>
    </edge>
    <edge id=":nod_1_5_0" function="internal">
        <lane id=":nod_1_5_0_0" index="0" speed="13.89" length="5.00" shape="1244.97,1258.12 1244.78,1256.77 1244.20,1255.80 1243.23,1255.22 1241.88,1255.03"/>
    </edge>
    <edge id=":nod_1_5_1" function="internal">
        <lane id=":nod_1_5_1_0" index="0" speed="13.89" length="16.25" shape="1244.97,1258.12 1244.97,1253.30 1244.97,1250.00 1244.97,1246.70 1244.97,1241.88"/>
        <lane id=":nod_1_5_1_1" index="1" speed="13.89" length="16.25" shape="1248.33,1258.12 1248.33,1253.30 1248.33,1250.00 1248.33,1246.70 1248.33,1241.88"/>
    </edge>
    <edge id=":nod_1_5_3" function="internal">
        <lane id=":nod_1_5_3_0" index="0" speed="13.89" length="6.85" shape="1248.33,1258.12 1248.94,1253.84 1250.24,1251.67"/>
    </edge>
    <edge id=":nod_1_5_4" function="internal">
        <lane id=":nod_1_5_4_0" index="0" speed="13.89" length="2.45" shape="1248.33,1258.12 1249.16,1256.87 1250.00,1256.45"/>
    </edge>
    <edge id=":nod_1_5_18" function="internal">
        <lane id=":nod_1_5_18_0" index="0" speed="13.89" length="8.95" shape="1250.24,1251.67 1250.78,1250.78 1253.84,1248.94 1258.12,1248.33"/>
    </edge>
    <edge id=":nod_1_5_19" function="internal">
        <lane id=":nod_1_5_19_0" index="0" speed="13.89" length="2.45" shape="1250.00,1256.45 1250.84,1256.87 1251.67,1258.12"/>
    </edge>
    <edge id=":nod_1_5_5" function="internal">
        <lane id=":nod_1_5_5_0" index="0" speed="13.89" length="5.00" shape="1258.12,1255.03 1256.77,1255.22 1255.80,1255.80 1255.22,1256.77 1255.03,1258.12"/>
    </edge>
    <edge id=":nod_1_5_6" function="internal">
        <lane id=":nod_1_5_6_0" index="0" speed="13.89" length="16.25" shape="1258.12,1251.67 1253.30,1251.67 1250.00,1251.67 1246.70,1251.67 1241.88,1251.67"/>
    </edge>
    <edge id=":nod_1_5_7" function="internal">
        <lane id=":nod_1_5_7_0" index="0" speed="13.89" length="3.13" shape="1258.12,1251.67 1255.03,1251.23"/>
    </edge>
    <edge id=":nod_1_5_8" function="internal">
        <lane id=":nod_1_5_8_0" index="0" speed="13.89" length="2.45" shape="1258.12,1251.67 1256.87,1250.84 1256.45,1250.00"/>
    </edge>
    <edge id=":nod_1_5_20" function="internal">
        <lane id=":nod_1_5_20_0" index="0" speed="13.89" length="12.67" shape="1255.03,1251.23 1253.84,1251.06 1250.78,1249.22 1248.94,1246.16 1248.33,1241.88"/>
    </edge>
    <edge id=":nod_1_5_21" function="internal">
        <lane id=":nod_1_5_21_0" index="0" speed="13.89" length="2.45" shape="1256.45,1250.00 1256.87,1249.16 1258.12,1248.33"/>
    </edge>
    <edge id=":nod_1_5_9" function="internal">
        <lane id=":nod_1_5_9_0" index="0" speed="13.89" length="5.00" shape="1255.03,1241.88 1255.22,1243.23 1255.80,1244.20 1256.77,1244.78 1258.12,1244.97"/>
    </edge>
    <edge id=":nod_1_5_10" function="internal">
        <lane id=":nod_1_5_10_0" index="0" speed="13.89" length="16.25" shape="1255.03,1241.88 1255.03,1246.70 1255.03,1250.00 1255.03,1253.30 1255.03,1258.12"/>
        <lane id=":nod_1_5_10_1" index="1" speed="13.89" length="16.25" shape="1251.67,1241.88 1251.67,1246.70 1251.67,1250.00 1251.67,1253.30 1251.67,1258.12"/>
    </edge>
    <edge id=":nod_1_5_12" function="internal">
        <lane id=":nod_1_5_12_0" index="0" speed="13.89" length="6.85" shape="1251.67,1241.88 1251.06,1246.16 1249.76,1248.33"/>
    </edge>
    <edge id=":nod_1_5_13" function="internal">
        <lane id=":nod_1_5_13_0" index="0" speed="13.89" length="2.45" shape="1251.67,1241.88 1250.84,1243.13 1250.00,1243.55"/>
    </edge>
    <edge id=":nod_1_5_22" function="internal">
        <lane id=":nod_1_5_22_0" index="0" speed="13.89" length="8.95" shape="1249.76,1248.33 1249.22,1249.22 1246.16,1251.06 1241.88,1251.67"/>
    </edge>
    <edge id=":nod_1_5_23" function="internal">
        <lane id=":nod_1_5_23_0" index="0" speed="13.89" length="2.45" shape="1250.00,1243.55 1249.16,1243.13 1248.33,1241.88"/>
    </edge>
    <edge id=":nod_1_5_14" function="internal">
        <lane id=":nod_1_5_14_0" index="0" speed="13.89" length="5.00" shape="1241.88,1244.97 1243.23,1244.78 1244.20,1244.20 1244.78,1243.23 1244.97,1241.88"/>
    </edge>
    <edge id=":nod_1_5_15" function="internal">
        <lane id=":nod_1_5_15_0" index="0" speed="13.89" length="16.25" shape="1241.88,1248.33 1246.70,1248.33 1250.00,1248.33 1253.30,1248.33 1258.12,1248.33"/>
    </edge>
    <edge id=":nod_1_5_16" function="internal">
        <lane id=":nod_1_5_16_0" index="0" speed="13.89" length="3.13" shape="1241.88,1248.33 1244.97,1248.77"/>
    </edge>
    <edge id=":nod_1_5_17" function="internal">
        <lane id=":nod_1_5_17_0" index="0" speed="13.89" length="2.45" shape="1241.88,1248.33 1243.13,1249.16 1243.55,1250.00"/>
    </edge>
    <edge id=":nod_1_5_24" function="internal">
        <lane id=":nod_1_5_24_0" index="0" speed="13.89" length="12.67" shape="1244.97,1248.77 1246.16,1248.94 1249.22,1250.78 1251.06,1253.84 1251.67,1258.12"/>
    </edge>
    <edge id=":nod_1_5_25" function="internal">
        <lane id=":nod_1_5_25_0" index="0" speed="13.89" length="2.45" shape="1243.55,1250.00 1243.13,1250.84 1241.88,1251.67"/>
    </edge>
    <edge id=":nod_1_6_0" function="internal">
        <lane id=":nod_1_6_0_0" index="0" speed="13.89" length="4.89" shape="1500.00,1248.33 1501.26,1249.16 1501.67,1250.00 1501.26,1250.84 1500.00,1251.67"/>
    </edge>
    <edge id=":nod_2_0_0" function="internal">
        <lane id=":nod_2_0_0_0" index="0" speed="13.89" length="4.89" shape="0.00,1001.67 -1.26,1000.84 -1.67,1000.00 -1.26,999.16 0.00,998.33"/>
    </edge>
    <edge id=":nod_2_1_0" function="internal">
        <lane id=":nod_2_1_0_0" index="0" speed="13.89" length="5.00" shape="244.97,1008.12 244.78,1006.77 244.20,1005.80 243.23,1005.22 241.88,1005.02"/>
    </edge>
    <edge id=":nod_2_1_1" function="internal">
        <lane id=":nod_2_1_1_0" index="0" speed="13.89" length="16.25" shape="244.97,1008.12 244.97,1003.30 244.97,1000.00 244.98,996.70 244.97,991.88"/>
        <lane id=":nod_2_1_1_1" index="1" speed="13.89" length="16.25" shape="248.32,1008.12 248.32,1003.30 248.32,1000.00 248.32,996.70 248.32,991.88"/>
    </edge>
    <edge id=":nod_2_1_3" function="internal">
        <lane id=":nod_2_1_3_0" index="0" speed="13.89" length="6.85" shape="248.32,1008.12 248.94,1003.84 250.24,1001.67"/>
    </edge>
    <edge id=":nod_2_1_4" function="internal">
        <lane id=":nod_2_1_4_0" index="0" speed="13.89" length="2.45" shape="248.32,1008.12 249.16,1006.87 250.00,1006.45"/>
    </edge>
    <edge id=":nod_2_1_18" function="internal">
        <lane id=":nod_2_1_18_0" index="0" speed="13.89" length="8.95" shape="250.24,1001.67 250.77,1000.78 253.84,998.94 258.12,998.33"/>
    </edge>
    <edge id=":nod_2_1_19" function="internal">
        <lane id=":nod_2_1_19_0" index="0" speed="13.89" length="2.45" shape="250.00,1006.45 250.84,1006.87 251.68,1008.12"/>
    </edge>
    <edge id=":nod_2_1_5" function="internal">
        <lane id=":nod_2_1_5_0" index="0" speed="13.89" length="5.00" shape="258.12,1005.02 256.77,1005.22 255.80,1005.80 255.22,1006.77 255.03,1008.12"/>
    </edge>
    <edge id=":nod_2_1_6" function="internal">
        <lane id=":nod_2_1_6_0" index="0" speed="13.89" length="16.25" shape="258.12,1001.67 253.30,1001.67 250.00,1001.67 246.70,1001.67 241.88,1001.67"/>
    </edge>
    <edge id=":nod_2_1_7" function="internal">