<?xml version="1.0" encoding="UTF-8"?>
	<routes xmlns:xsi="http://www.w3.org/2001/XMLSchema-instance" xsi:noNamespaceSchemaLocation="Data/GridNetwork/GridNetwork.rou.xml">
	
		<vType id = "passenger" accel = "0.800000"	decel = "4.500000" minGap = "2.500000" sigma = "0.500000" color = "1,1,0" length = "5.000000" maxSpeed = "16.670000" guiShape = "passenger"		/>
		<vType id = "emergency" accel = "1.000000"	decel = "5.500000" minGap = "2.500000" sigma = "0.700000" color = "1,0,0" length = "7.000000" maxSpeed = "30.000000" guiShape = "passenger/van"		/>
		<vType id = "transport" accel = "0.800000"	decel = "4.500000" minGap = "3.000000" sigma = "0.500000" color = "0,0,1" length = "10.000000" maxSpeed = "25.000000" guiShape = "transport"		/>
		<vType id = "bus" accel = "0.800000"	decel = "4.500000" minGap = "3.000000" sigma = "0.500000" color = "0,1,0" length = "10.000000" maxSpeed = "25.000000" guiShape = "bus"		/>
		<vehicle id = "veh_0" type = "passenger" depart = "0.000000" >
				<route edges ="edg_0_1_S edg_1_1_S edg_2_1_E edg_2_2_S "		/>
		</vehicle>
		<vehicle id = "veh_1" type = "transport" depart = "1.000000" >
				<route edges ="edg_3_1_N edg_2_1_E edg_2_2_N edg_1_2_S edg_2_2_S "		/>
		</vehicle>
		<vehicle id = "veh_2" type = "emergency" depart = "2.000000" >
				<route edges ="edg_0_1_S edg_1_1_W "		/>
		</vehicle>
		<vehicle id = "veh_3" type = "bus" depart = "3.000000" >
				<route edges ="edg_1_0_E edg_1_1_N "		/>
		</vehicle>
		<vehicle id = "veh_4" type = "passenger" depart = "4.000000" >
				<route edges ="edg_3_2_N edg_2_2_S "		/>
		</vehicle>
		<vehicle id = "veh_5" type = "emergency" depart = "5.000000" >
				<route edges ="edg_0_1_S edg_1_1_E edg_1_2_N "		/>
		</vehicle>
		<vehicle id = "veh_6" type = "emergency" depart = "6.000000" >
				<route edges ="edg_0_2_S edg_1_2_N "		/>
		</vehicle>
		<vehicle id = "veh_7" type = "passenger" depart = "7.000000" >
				<route edges ="edg_0_1_S edg_1_1_W "		/>
		</vehicle>
		<vehicle id = "veh_8" type = "emergency" depart = "8.000000" >
				<route edges ="edg_1_0_E edg_1_1_E edg_1_2_S edg_2_2_W edg_2_1_W "		/>
		</vehicle>
		<vehicle id = "veh_9" type = "transport" depart = "9.000000" >
				<route edges ="edg_0_2_S edg_1_2_E "		/>
		</vehicle>
		<vehicle id = "veh_10" type = "transport" depart = "10.000000" >
				<route edges ="edg_3_2_N edg_2_2_S "		/>
		</vehicle>
		<vehicle id = "veh_11" type = "emergency" depart = "11.000000" >
				<route edges ="edg_0_2_S edg_1_2_W edg_1_1_S edg_2_1_S "		/>
		</vehicle>
		<vehicle id = "veh_12" type = "passenger" depart = "12.000000" >
				<route edges ="edg_0_2_S edg_1_2_N "		/>
		</vehicle>
		<vehicle id = "veh_13" type = "bus" depart = "13.000000" >
				<route edges ="edg_1_0_E edg_1_1_E edg_1_2_W edg_1_1_E edg_1_2_S edg_2_2_W edg_2_1_W "		/>
		</vehicle>
		<vehicle id = "veh_14" type = "transport" depart = "14.000000" >
				<route edges ="edg_1_3_W edg_1_2_E "		/>
		</vehicle>
		<vehicle id = "veh_15" type = "emergency" depart = "15.000000" >
				<route edges ="edg_3_1_N edg_2_1_W "		/>
		</vehicle>
		<vehicle id = "veh_16" type = "transport" depart = "16.000000" >
				<route edges ="edg_2_3_W edg_2_2_S "		/>
		</vehicle>
		<vehicle id = "veh_17" type = "emergency" depart = "17.000000" >
				<route edges ="edg_3_1_N edg_2_1_E edg_2_2_E "		/>
		</vehicle>
		<vehicle id = "veh_18" type = "transport" depart = "18.000000" >
				<route edges ="edg_3_1_N edg_2_1_E edg_2_2_N edg_1_2_E "		/>
		</vehicle>
		<vehicle id = "veh_19" type = "transport" depart = "19.000000" >
				<route edges ="edg_2_0_E edg_2_1_W "		/>
		</vehicle>
		<vehicle id = "veh_20" type = "bus" depart = "20.000000" >
				<route edges ="edg_2_3_W edg_2_2_E "		/>
		</vehicle>
		<vehicle id = "veh_21" type = "passenger" depart = "21.000000" >
				<route edges ="edg_1_0_E edg_1_1_N "		/>
		</vehicle>
		<vehicle id = "veh_22" type = "passenger" depart = "22.000000" >
				<route edges ="edg_0_1_S edg_1_1_S edg_2_1_N edg_1_1_E edg_1_2_W edg_1_1_W "		/>
		</vehicle>
		<vehicle id = "veh_23" type = "emergency" depart = "23.000000" >
				<route edges ="edg_1_0_E edg_1_1_E edg_1_2_W edg_1_1_E edg_1_2_S edg_2_2_N edg_1_2_W edg_1_1_S edg_2_1_N edg_1_1_E edg_1_2_W edg_1_1_S edg_2_1_W "		/>
		</vehicle>
		<vehicle id = "veh_24" type = "passenger" depart = "24.000000" >
				<route edges ="edg_1_3_W edg_1_2_S edg_2_2_W edg_2_1_W "		/>
		</vehicle>
		<vehicle id = "veh_25" type = "bus" depart = "25.000000" >
				<route edges ="edg_2_3_W edg_2_2_N edg_1_2_E "		/>
		</vehicle>
		<vehicle id = "veh_26" type = "transport" depart = "26.000000" >
				<route edges ="edg_2_0_E edg_2_1_N edg_1_1_E edg_1_2_W edg_1_1_N "		/>
		</vehicle>
		<vehicle id = "veh_27" type = "emergency" depart = "27.000000" >
				<route edges ="edg_2_3_W edg_2_2_S "		/>
		</vehicle>
		<vehicle id = "veh_28" type = "bus" depart = "28.000000" >
				<route edges ="edg_1_0_E edg_1_1_S edg_2_1_N edg_1_1_W "		/>
		</vehicle>
		<vehicle id = "veh_29" type = "transport" depart = "29.000000" >
				<route edges ="edg_1_0_E edg_1_1_S edg_2_1_S "		/>
		</vehicle>
		<vehicle id = "veh_30" type = "emergency" depart = "30.000000" >
				<route edges ="edg_1_0_E edg_1_1_E edg_1_2_S edg_2_2_W edg_2_1_N edg_1_1_W "		/>
		</vehicle>
		<vehicle id = "veh_31" type = "passenger" depart = "31.000000" >
				<route edges ="edg_0_1_S edg_1_1_S edg_2_1_S "		/>
		</vehicle>
		<vehicle id = "veh_32" type = "passenger" depart = "32.000000" >
				<route edges ="edg_3_1_N edg_2_1_S "		/>
		</vehicle>
		<vehicle id = "veh_33" type = "bus" depart = "33.000000" >
				<route edges ="edg_0_1_S edg_1_1_E edg_1_2_N "		/>
		</vehicle>
		<vehicle id = "veh_34" type = "passenger" depart = "34.000000" >
				<route edges ="edg_0_2_S edg_1_2_W edg_1_1_E edg_1_2_E "		/>
		</vehicle>
		<vehicle id = "veh_35" type = "bus" depart = "35.000000" >
				<route edges ="edg_0_2_S edg_1_2_S edg_2_2_E "		/>
		</vehicle>
		<vehicle id = "veh_36" type = "transport" depart = "36.000000" >
				<route edges ="edg_3_1_N edg_2_1_N edg_1_1_S edg_2_1_W "		/>
		</vehicle>
		<vehicle id = "veh_37" type = "transport" depart = "37.000000" >
				<route edges ="edg_3_1_N edg_2_1_S "		/>
		</vehicle>
		<vehicle id = "veh_38" type = "passenger" depart = "38.000000" >
				<route edges ="edg_2_3_W edg_2_2_W edg_2_1_E edg_2_2_N edg_1_2_S edg_2_2_S "		/>
		</vehicle>
		<vehicle id = "veh_39" type = "bus" depart = "39.000000" >
				<route edges ="edg_3_1_N edg_2_1_E edg_2_2_S "		/>
		</vehicle>
		<vehicle id = "veh_40" type = "bus" depart = "40.000000" >
				<route edges ="edg_1_0_E edg_1_1_S edg_2_1_N edg_1_1_N "		/>
		</vehicle>
		<vehicle id = "veh_41" type = "passenger" depart = "41.000000" >
				<route edges ="edg_1_3_W edg_1_2_W edg_1_1_N "		/>
		</vehicle>
		<vehicle id = "veh_42" type = "passenger" depart = "42.000000" >
				<route edges ="edg_2_3_W edg_2_2_N edg_1_2_S edg_2_2_W edg_2_1_S "		/>
		</vehicle>
		<vehicle id = "veh_43" type = "emergency" depart = "43.000000" >
				<route edges ="edg_3_2_N edg_2_2_S "		/>
		</vehicle>
		<vehicle id = "veh_44" type = "passenger" depart = "44.000000" >
				<route edges ="edg_1_3_W edg_1_2_E "		/>
		</vehicle>
		<vehicle id = "veh_45" type = "transport" depart = "45.000000" >
				<route edges ="edg_3_1_N edg_2_1_S "		/>
		</vehicle>
		<vehicle id = "veh_46" type = "bus" depart = "46.000000" >
				<route edges ="edg_2_3_W edg_2_2_S "		/>
		</vehicle>
		<vehicle id = "veh_47" type = "bus" depart = "47.000000" >
				<route edges ="edg_1_3_W edg_1_2_W edg_1_1_W "		/>
		</vehicle>
		<vehicle id = "veh_48" type = "bus" depart = "48.000000" >
				<route edges ="edg_2_3_W edg_2_2_N edg_1_2_W edg_1_1_W "		/>
		</vehicle>
		<vehicle id = "veh_49" type = "transport" depart = "49.000000" >
				<route edges ="edg_2_0_E edg_2_1_E edg_2_2_W edg_2_1_E edg_2_2_E "		/>
		</vehicle>
		<vehicle id = "veh_50" type = "transport" depart = "50.000000" >
				<route edges ="edg_2_3_W edg_2_2_S "		/>
		</vehicle>
		<vehicle id = "veh_51" type = "passenger" depart = "51.000000" >
				<route edges ="edg_2_3_W edg_2_2_S "		/>
		</vehicle>
		<vehicle id = "veh_52" type = "bus" depart = "52.000000" >
				<route edges ="edg_0_2_S edg_1_2_W edg_1_1_E edg_1_2_N "		/>
		</vehicle>
		<vehicle id = "veh_53" type = "emergency" depart = "53.000000" >
				<route edges ="edg_2_0_E edg_2_1_W "		/>
		</vehicle>
		<vehicle id = "veh_54" type = "passenger" depart = "54.000000" >
				<route edges ="edg_2_0_E edg_2_1_W "		/>
		</vehicle>
		<vehicle id = "veh_55" type = "passenger" depart = "55.000000" >
				<route edges ="edg_0_1_S edg_1_1_W "		/>
		</vehicle>
		<vehicle id = "veh_56" type = "bus" depart = "56.000000" >
				<route edges ="edg_2_3_W edg_2_2_W edg_2_1_E edg_2_2_E "		/>
		</vehicle>
		<vehicle id = "veh_57" type = "emergency" depart = "57.000000" >
				<route edges ="edg_1_3_W edg_1_2_N "		/>
		</vehicle>
		<vehicle id = "veh_58" type = "passenger" depart = "58.000000" >
				<route edges ="edg_0_2_S edg_1_2_E "		/>
		</vehicle>
		<vehicle id = "veh_59" type = "transport" depart = "59.000000" >
				<route edges ="edg_0_2_S edg_1_2_W edg_1_1_E edg_1_2_N "		/>
		</vehicle>
		<vehicle id = "veh_60" type = "bus" depart = "60.000000" >
				<route edges ="edg_3_1_N edg_2_1_N edg_1_1_W "		/>
		</vehicle>
		<vehicle id = "veh_61" type = "emergency" depart = "61.000000" >
				<route edges ="edg_3_1_N edg_2_1_E edg_2_2_E "		/>
		</vehicle>
		<vehicle id = "veh_62" type = "emergency" depart = "62.000000" >
				<route edges ="edg_2_3_W edg_2_2_S "		/>
		</vehicle>
		<vehicle id = "veh_63" type = "emergency" depart = "63.000000" >
				<route edges ="edg_2_0_E edg_2_1_E edg_2_2_S "		/>
		</vehicle>
		<vehicle id = "veh_64" type = "transport" depart = "64.000000" >
				<route edges ="edg_2_3_W edg_2_2_N edg_1_2_S edg_2_2_E "		/>
		</vehicle>
		<vehicle id = "veh_65" type = "emergency" depart = "65.000000" >
				<route edges ="edg_3_1_N edg_2_1_E edg_2_2_W edg_2_1_W "		/>
		</vehicle>
		<vehicle id = "veh_66" type = "transport" depart = "66.000000" >
				<route edges ="edg_2_0_E edg_2_1_E edg_2_2_N edg_1_2_E "		/>
		</vehicle>
		<vehicle id = "veh_67" type = "bus" depart = "67.000000" >
				<route edges ="edg_3_1_N edg_2_1_W "		/>
		</vehicle>
		<vehicle id = "veh_68" type = "passenger" depart = "68.000000" >
				<route edges ="edg_3_2_N edg_2_2_S "		/>
		</vehicle>
		<vehicle id = "veh_69" type = "transport" depart = "69.000000" >
				<route edges ="edg_0_2_S edg_1_2_E "		/>
		</vehicle>
		<vehicle id = "veh_70" type = "bus" depart = "70.000000" >
				<route edges ="edg_0_1_S edg_1_1_W "		/>
		</vehicle>
		<vehicle id = "veh_71" type = "transport" depart = "71.000000" >
				<route edges ="edg_2_0_E edg_2_1_N edg_1_1_N "		/>
		</vehicle>
		<vehicle id = "veh_72" type = "bus" depart = "72.000000" >
				<route edges ="edg_2_3_W edg_2_2_E "		/>
		</vehicle>
		<vehicle id = "veh_73" type = "transport" depart = "73.000000" >
				<route edges ="edg_1_0_E edg_1_1_N "		/>
		</vehicle>
		<vehicle id = "veh_74" type = "passenger" depart = "74.000000" >
				<route edges ="edg_0_1_S edg_1_1_N "		/>
		</vehicle>
		<vehicle id = "veh_75" type = "emergency" depart = "75.000000" >
				<route edges ="edg_2_0_E edg_2_1_N edg_1_1_N "		/>
		</vehicle>
		<vehicle id = "veh_76" type = "passenger" depart = "76.000000" >
				<route edges ="edg_2_0_E edg_2_1_E edg_2_2_N edg_1_2_W edg_1_1_N "		/>
		</vehicle>
		<vehicle id = "veh_77" type = "transport" depart = "77.000000" >
				<route edges ="edg_2_0_E edg_2_1_E edg_2_2_S "		/>
		</vehicle>
		<vehicle id = "veh_78" type = "emergency" depart = "78.000000" >
				<route edges ="edg_0_1_S edg_1_1_N "		/>
		</vehicle>
		<vehicle id = "veh_79" type = "passenger" depart = "79.000000" >
				<route edges ="edg_3_2_N edg_2_2_W edg_2_1_E edg_2_2_S "		/>
		</vehicle>
		<vehicle id = "veh_80" type = "transport" depart = "80.000000" >
				<route edges ="edg_0_2_S edg_1_2_S edg_2_2_W edg_2_1_W "		/>
		</vehicle>
		<vehicle id = "veh_81" type = "transport" depart = "81.000000" >
				<route edges ="edg_2_3_W edg_2_2_N edg_1_2_W edg_1_1_S edg_2_1_W "		/>
		</vehicle>
		<vehicle id = "veh_82" type = "emergency" depart = "82.000000" >
				<route edges ="edg_2_0_E edg_2_1_S "		/>
		</vehicle>
		<vehicle id = "veh_83" type = "emergency" depart = "83.000000" >
				<route edges ="edg_2_0_E edg_2_1_W "		/>
		</vehicle>
		<vehicle id = "veh_84" type = "transport" depart = "84.000000" >
				<route edges ="edg_2_3_W edg_2_2_W edg_2_1_W "		/>
		</vehicle>
		<vehicle id = "veh_85" type = "transport" depart = "85.000000" >
				<route edges ="edg_0_2_S edg_1_2_S edg_2_2_W edg_2_1_S "		/>
		</vehicle>
		<vehicle id = "veh_86" type = "passenger" depart = "86.000000" >
				<route edges ="edg_2_0_E edg_2_1_N edg_1_1_W "		/>
		</vehicle>
		<vehicle id = "veh_87" type = "emergency" depart = "87.000000" >
				<route edges ="edg_3_1_N edg_2_1_E edg_2_2_N edg_1_2_W edg_1_1_N "		/>
		</vehicle>
		<vehicle id = "veh_88" type = "transport" depart = "88.000000" >
				<route edges ="edg_3_1_N edg_2_1_E edg_2_2_E "		/>
		</vehicle>
		<vehicle id = "veh_89" type = "passenger" depart = "89.000000" >
				<route edges ="edg_0_1_S edg_1_1_S edg_2_1_W "		/>
		</vehicle>
		<vehicle id = "veh_90" type = "bus" depart = "90.000000" >
				<route edges ="edg_3_1_N edg_2_1_N edg_1_1_W "		/>
		</vehicle>
		<vehicle id = "veh_91" type = "transport" depart = "91.000000" >
				<route edges ="edg_3_2_N edg_2_2_N edg_1_2_E "		/>
		</vehicle>
		<vehicle id = "veh_92" type = "emergency" depart = "92.000000" >
				<route edges ="edg_3_2_N edg_2_2_W edg_2_1_E edg_2_2_W edg_2_1_W "		/>
		</vehicle>
		<vehicle id = "veh_93" type = "transport" depart = "93.000000" >
				<route edges ="edg_3_1_N edg_2_1_S "		/>
		</vehicle>
		<vehicle id = "veh_94" type = "passenger" depart = "94.000000" >
				<route edges ="edg_2_3_W edg_2_2_S "		/>
		</vehicle>
		<vehicle id = "veh_95" type = "bus" depart = "95.000000" >
				<route edges ="edg_2_3_W edg_2_2_S "		/>
		</vehicle>
		<vehicle id = "veh_96" type = "transport" depart = "96.000000" >
				<route edges ="edg_1_0_E edg_1_1_W "		/>
		</vehicle>
		<vehicle id = "veh_97" type = "emergency" depart = "97.000000" >
				<route edges ="edg_1_0_E edg_1_1_S edg_2_1_E edg_2_2_S "		/>
		</vehicle>
		<vehicle id = "veh_98" type = "transport" depart = "98.000000" >
				<route edges ="edg_3_1_N edg_2_1_S "		/>
		</vehicle>
		<vehicle id = "veh_99" type = "bus" depart = "99.000000" >
				<route edges ="edg_3_1_N edg_2_1_W "		/>
		</vehicle>
		<vehicle id = "veh_100" type = "passenger" depart = "100.000000" >
				<route edges ="edg_0_2_S edg_1_2_S edg_2_2_E "		/>
		</vehicle>
		<vehicle id = "veh_101" type = "passenger" depart = "101.000000" >
				<route edges ="edg_1_3_W edg_1_2_S edg_2_2_E "		/>
		</vehicle>
		<vehicle id = "veh_102" type = "passenger" depart = "102.000000" >
				<route edges ="edg_3_2_N edg_2_2_N edg_1_2_N "		/>
		</vehicle>
		<vehicle id = "veh_103" type = "bus" depart = "103.000000" >
				<route edges ="edg_1_0_E edg_1_1_E edg_1_2_S edg_2_2_E "		/>
		</vehicle>
		<vehicle id = "veh_104" type = "transport" depart = "104.000000" >
				<route edges ="edg_0_2_S edg_1_2_S edg_2_2_N edg_1_2_E "		/>
		</vehicle>
		<vehicle id = "veh_105" type = "passenger" depart = "105.000000" >
				<route edges ="edg_2_3_W edg_2_2_E "		/>
		</vehicle>
		<vehicle id = "veh_106" type = "emergency" depart = "106.000000" >
				<route edges ="edg_0_2_S edg_1_2_W edg_1_1_E edg_1_2_E "		/>
		</vehicle>
		<vehicle id = "veh_107" type = "passenger" depart = "107.000000" >
				<route edges ="edg_3_1_N edg_2_1_S "		/>
		</vehicle>
		<vehicle id = "veh_108" type = "passenger" depart = "108.000000" >
				<route edges ="edg_3_1_N edg_2_1_N edg_1_1_N "		/>
		</vehicle>
		<vehicle id = "veh_109" type = "emergency" depart = "109.000000" >
				<route edges ="edg_2_0_E edg_2_1_E edg_2_2_W edg_2_1_E edg_2_2_N edg_1_2_W edg_1_1_E edg_1_2_S edg_2_2_N edg_1_2_E "		/>
		</vehicle>
		<vehicle id = "veh_110" type = "bus" depart = "110.000000" >
				<route edges ="edg_1_0_E edg_1_1_S edg_2_1_S "		/>
		</vehicle>
		<vehicle id = "veh_111" type = "passenger" depart = "111.000000" >
				<route edges ="edg_1_0_E edg_1_1_W "		/>
		</vehicle>
		<vehicle id = "veh_112" type = "transport" depart = "112.000000" >
				<route edges ="edg_0_1_S edg_1_1_E edg_1_2_W edg_1_1_E edg_1_2_E "		/>
		</vehicle>
		<vehicle id = "veh_113" type = "transport" depart = "113.000000" >
				<route edges ="edg_0_2_S edg_1_2_E "		/>
		</vehicle>
		<vehicle id = "veh_114" type = "transport" depart = "114.000000" >
				<route edges ="edg_3_1_N edg_2_1_W "		/>
		</vehicle>
		<vehicle id = "veh_115" type = "transport" depart = "115.000000" >
				<route edges ="edg_0_2_S edg_1_2_W edg_1_1_N "		/>
		</vehicle>
		<vehicle id = "veh_116" type = "passenger" depart = "116.000000" >
				<route edges ="edg_2_3_W edg_2_2_S "		/>
		</vehicle>
		<vehicle id = "veh_117" type = "emergency" depart = "117.000000" >
				<route edges ="edg_3_2_N edg_2_2_W edg_2_1_E edg_2_2_S "		/>
		</vehicle>
		<vehicle id = "veh_118" type = "bus" depart = "118.000000" >
				<route edges ="edg_0_1_S edg_1_1_W "		/>
		</vehicle>
		<vehicle id = "veh_119" type = "passenger" depart = "119.000000" >
				<route edges ="edg_3_1_N edg_2_1_E edg_2_2_N edg_1_2_W edg_1_1_E edg_1_2_S edg_2_2_S "		/>
		</vehicle>
		<vehicle id = "veh_120" type = "transport" depart = "120.000000" >
				<route edges ="edg_1_3_W edg_1_2_W edg_1_1_S edg_2_1_E edg_2_2_E "		/>
		</vehicle>
		<vehicle id = "veh_121" type = "transport" depart = "121.000000" >
				<route edges ="edg_0_1_S edg_1_1_W "		/>
		</vehicle>
		<vehicle id = "veh_122" type = "passenger" depart = "122.000000" >
				<route edges ="edg_3_2_N edg_2_2_N edg_1_2_W edg_1_1_S edg_2_1_W "		/>
		</vehicle>
		<vehicle id = "veh_123" type = "passenger" depart = "123.000000" >
				<route edges ="edg_3_2_N edg_2_2_W edg_2_1_W "		/>
		</vehicle>
		<vehicle id = "veh_124" type = "bus" depart = "124.000000" >
				<route edges ="edg_1_3_W edg_1_2_E "		/>
		</vehicle>
		<vehicle id = "veh_125" type = "emergency" depart = "125.000000" >
				<route edges ="edg_1_3_W edg_1_2_N "		/>
		</vehicle>
		<vehicle id = "veh_126" type = "passenger" depart = "126.000000" >
				<route edges ="edg_3_2_N edg_2_2_W edg_2_1_S "		/>
		</vehicle>
		<vehicle id = "veh_127" type = "transport" depart = "127.000000" >
				<route edges ="edg_3_2_N edg_2_2_W edg_2_1_W "		/>
		</vehicle>
		<vehicle id = "veh_128" type = "bus" depart = "128.000000" >
				<route edges ="edg_2_0_E edg_2_1_E edg_2_2_N edg_1_2_S edg_2_2_S "		/>
		</vehicle>
		<vehicle id = "veh_129" type = "transport" depart = "129.000000" >
				<route edges ="edg_0_1_S edg_1_1_E edg_1_2_W edg_1_1_E edg_1_2_S edg_2_2_N edg_1_2_W edg_1_1_E edg_1_2_N "		/>
		</vehicle>
		<vehicle id = "veh_130" type = "transport" depart = "130.000000" >
				<route edges ="edg_2_3_W edg_2_2_N edg_1_2_E "		/>
		</vehicle>
		<vehicle id = "veh_131" type = "bus" depart = "131.000000" >
				<route edges ="edg_2_3_W edg_2_2_N edg_1_2_W edg_1_1_W "		/>
		</vehicle>
		<vehicle id = "veh_132" type = "bus" depart = "132.000000" >
				<route edges ="edg_2_3_W edg_2_2_N edg_1_2_W edg_1_1_E edg_1_2_W edg_1_1_N "		/>
		</vehicle>
		<vehicle id = "veh_133" type = "transport" depart = "133.000000" >
				<route edges ="edg_2_0_E edg_2_1_N edg_1_1_E edg_1_2_W edg_1_1_E edg_1_2_S edg_2_2_S "		/>
		</vehicle>
		<vehicle id = "veh_134" type = "emergency" depart = "134.000000" >
				<route edges ="edg_0_1_S edg_1_1_N "		/>
		</vehicle>
		<vehicle id = "veh_135" type = "bus" depart = "135.000000" >
				<route edges ="edg_1_3_W edg_1_2_N "		/>
		</vehicle>
		<vehicle id = "veh_136" type = "transport" depart = "136.000000" >
				<route edges ="edg_0_2_S edg_1_2_W edg_1_1_W "		/>
		</vehicle>
		<vehicle id = "veh_137" type = "transport" depart = "137.000000" >
				<route edges ="edg_3_1_N edg_2_1_E edg_2_2_W edg_2_1_N edg_1_1_S edg_2_1_E edg_2_2_S "		/>
		</vehicle>
		<vehicle id = "veh_138" type = "passenger" depart = "138.000000" >
				<route edges ="edg_1_0_E edg_1_1_S edg_2_1_W "		/>
		</vehicle>
		<vehicle id = "veh_139" type = "emergency" depart = "139.000000" >
				<route edges ="edg_1_0_E edg_1_1_N "		/>
		</vehicle>
		<vehicle id = "veh_140" type = "emergency" depart = "140.000000" >
				<route edges ="edg_1_0_E edg_1_1_E edg_1_2_W edg_1_1_E edg_1_2_W edg_1_1_N "		/>
		</vehicle>
		<vehicle id = "veh_141" type = "passenger" depart = "141.000000" >
				<route edges ="edg_1_0_E edg_1_1_W "		/>
		</vehicle>
		<vehicle id = "veh_142" type = "emergency" depart = "142.000000" >
				<route edges ="edg_2_0_E edg_2_1_W "		/>
		</vehicle>
		<vehicle id = "veh_143" type = "transport" depart = "143.000000" >
				<route edges ="edg_3_1_N edg_2_1_N edg_1_1_S edg_2_1_N edg_1_1_E edg_1_2_E "		/>
		</vehicle>
		<vehicle id = "veh_144" type = "passenger" depart = "144.000000" >
				<route edges ="edg_0_1_S edg_1_1_N "		/>
		</vehicle>
		<vehicle id = "veh_145" type = "bus" depart = "145.000000" >
				<route edges ="edg_2_0_E edg_2_1_N edg_1_1_W "		/>
		</vehicle>
		<vehicle id = "veh_146" type = "transport" depart = "146.000000" >
				<route edges ="edg_2_3_W edg_2_2_N edg_1_2_W edg_1_1_W "		/>
		</vehicle>
		<vehicle id = "veh_147" type = "transport" depart = "147.000000" >
				<route edges ="edg_2_0_E edg_2_1_E edg_2_2_N edg_1_2_S edg_2_2_N edg_1_2_E "		/>
		</vehicle>
		<vehicle id = "veh_148" type = "passenger" depart = "148.000000" >
				<route edges ="edg_0_1_S edg_1_1_S edg_2_1_S "		/>
		</vehicle>
		<vehicle id = "veh_149" type = "transport" depart = "149.000000" >
				<route edges ="edg_0_2_S edg_1_2_N "		/>
		</vehicle>
		<vehicle id = "veh_150" type = "bus" depart = "150.000000" >
				<route edges ="edg_3_1_N edg_2_1_W "		/>
		</vehicle>
		<vehicle id = "veh_151" type = "bus" depart = "151.000000" >
				<route edges ="edg_2_0_E edg_2_1_N edg_1_1_W "		/>
		</vehicle>
		<vehicle id = "veh_152" type = "passenger" depart = "152.000000" >
				<route edges ="edg_0_1_S edg_1_1_E edg_1_2_S edg_2_2_S "		/>
		</vehicle>
		<vehicle id = "veh_153" type = "bus" depart = "153.000000" >
				<route edges ="edg_1_3_W edg_1_2_S edg_2_2_E "		/>
		</vehicle>
		<vehicle id = "veh_154" type = "transport" depart = "154.000000" >
				<route edges ="edg_1_0_E edg_1_1_E edg_1_2_N "		/>
		</vehicle>
		<vehicle id = "veh_155" type = "emergency" depart = "155.000000" >
				<route edges ="edg_0_2_S edg_1_2_W edg_1_1_S edg_2_1_W "		/>
		</vehicle>
		<vehicle id = "veh_156" type = "emergency" depart = "156.000000" >
				<route edges ="edg_1_3_W edg_1_2_W edg_1_1_S edg_2_1_W "		/>
		</vehicle>
		<vehicle id = "veh_157" type = "transport" depart = "157.000000" >
				<route edges ="edg_3_2_N edg_2_2_E "		/>
		</vehicle>
		<vehicle id = "veh_158" type = "emergency" depart = "158.000000" >
				<route edges ="edg_0_2_S edg_1_2_N "		/>
		</vehicle>
		<vehicle id = "veh_159" type = "bus" depart = "159.000000" >
				<route edges ="edg_3_2_N edg_2_2_N edg_1_2_W edg_1_1_W "		/>
		</vehicle>
		<vehicle id = "veh_160" type = "bus" depart = "160.000000" >
				<route edges ="edg_1_3_W edg_1_2_N "		/>
		</vehicle>
		<vehicle id = "veh_161" type = "bus" depart = "161.000000" >
				<route edges ="edg_3_2_N edg_2_2_N edg_1_2_S edg_2_2_E "		/>
		</vehicle>
		<vehicle id = "veh_162" type = "transport" depart = "162.000000" >
				<route edges ="edg_2_3_W edg_2_2_W edg_2_1_S "		/>
		</vehicle>
		<vehicle id = "veh_163" type = "bus" depart = "163.000000" >
				<route edges ="edg_1_3_W edg_1_2_S edg_2_2_E "		/>
		</vehicle>
		<vehicle id = "veh_164" type = "transport" depart = "164.000000" >
				<route edges ="edg_3_2_N edg_2_2_E "		/>
		</vehicle>
		<vehicle id = "veh_165" type = "emergency" depart = "165.000000" >
				<route edges ="edg_1_3_W edg_1_2_E "		/>
		</vehicle>
		<vehicle id = "veh_166" type = "transport" depart = "166.000000" >
				<route edges ="edg_2_0_E edg_2_1_N edg_1_1_N "		/>
		</vehicle>
		<vehicle id = "veh_167" type = "emergency" depart = "167.000000" >
				<route edges ="edg_3_1_N edg_2_1_W "		/>
		</vehicle>
		<vehicle id = "veh_168" type = "passenger" depart = "168.000000" >
				<route edges ="edg_0_1_S edg_1_1_S edg_2_1_E edg_2_2_N edg_1_2_E "		/>
		</vehicle>
		<vehicle id = "veh_169" type = "passenger" depart = "169.000000" >
				<route edges ="edg_2_0_E edg_2_1_W "		/>
		</vehicle>
		<vehicle id = "veh_170" type = "transport" depart = "170.000000" >
				<route edges ="edg_1_3_W edg_1_2_N "		/>
		</vehicle>
		<vehicle id = "veh_171" type = "passenger" depart = "171.000000" >
				<route edges ="edg_3_2_N edg_2_2_S "		/>
		</vehicle>
		<vehicle id = "veh_172" type = "passenger" depart = "172.000000" >
				<route edges ="edg_2_3_W edg_2_2_W edg_2_1_E edg_2_2_E "		/>
		</vehicle>
		<vehicle id = "veh_173" type = "emergency" depart = "173.000000" >
				<route edges ="edg_0_1_S edg_1_1_S edg_2_1_W "		/>
		</vehicle>
		<vehicle id = "veh_174" type = "passenger" depart = "174.000000" >
				<route edges ="edg_2_0_E edg_2_1_S "		/>
		</vehicle>
		<vehicle id = "veh_175" type = "bus" depart = "175.000000" >
				<route edges ="edg_1_3_W edg_1_2_N "		/>
		</vehicle>
		<vehicle id = "veh_176" type = "transport" depart = "176.000000" >
				<route edges ="edg_2_3_W edg_2_2_N edg_1_2_S edg_2_2_E "		/>
		</vehicle>
		<vehicle id = "veh_177" type = "passenger" depart = "177.000000" >
				<route edges ="edg_3_1_N edg_2_1_E edg_2_2_S "		/>
		</vehicle>
		<vehicle id = "veh_178" type = "transport" depart = "178.000000" >
				<route edges ="edg_1_3_W edg_1_2_S edg_2_2_W edg_2_1_W "		/>
		</vehicle>
		<vehicle id = "veh_179" type = "transport" depart = "179.000000" >
				<route edges ="edg_0_1_S edg_1_1_W "		/>
		</vehicle>
		<vehicle id = "veh_180" type = "passenger" depart = "180.000000" >
				<route edges ="edg_2_0_E edg_2_1_S "		/>
		</vehicle>
		<vehicle id = "veh_181" type = "bus" depart = "181.000000" >
				<route edges ="edg_3_2_N edg_2_2_S "		/>
		</vehicle>
		<vehicle id = "veh_182" type = "emergency" depart = "182.000000" >
				<route edges ="edg_1_0_E edg_1_1_N "		/>
		</vehicle>
		<vehicle id = "veh_183" type = "bus" depart = "183.000000" >
				<route edges ="edg_2_0_E edg_2_1_N edg_1_1_S edg_2_1_S "		/>
		</vehicle>
		<vehicle id = "veh_184" type = "emergency" depart = "184.000000" >
				<route edges ="edg_3_2_N edg_2_2_S "		/>
		</vehicle>
		<vehicle id = "veh_185" type = "passenger" depart = "185.000000" >
				<route edges ="edg_3_2_N edg_2_2_E "		/>
		</vehicle>
		<vehicle id = "veh_186" type = "transport" depart = "186.000000" >
				<route edges ="edg_2_0_E edg_2_1_S "		/>
		</vehicle>
		<vehicle id = "veh_187" type = "emergency" depart = "187.000000" >
				<route edges ="edg_3_1_N edg_2_1_N edg_1_1_W "		/>
		</vehicle>
		<vehicle id = "veh_188" type = "passenger" depart = "188.000000" >
				<route edges ="edg_0_1_S edg_1_1_E edg_1_2_E "		/>
		</vehicle>
		<vehicle id = "veh_189" type = "transport" depart = "189.000000" >
				<route edges ="edg_3_1_N edg_2_1_E edg_2_2_E "		/>
		</vehicle>
		<vehicle id = "veh_190" type = "transport" depart = "190.000000" >
				<route edges ="edg_1_3_W edg_1_2_N "		/>
		</vehicle>
		<vehicle id = "veh_191" type = "bus" depart = "191.000000" >
				<route edges ="edg_1_3_W edg_1_2_N "		/>
		</vehicle>
		<vehicle id = "veh_192" type = "transport" depart = "192.000000" >
				<route edges ="edg_0_1_S edg_1_1_S edg_2_1_N edg_1_1_E edg_1_2_S edg_2_2_S "		/>
		</vehicle>
		<vehicle id = "veh_193" type = "emergency" depart = "193.000000" >
				<route edges ="edg_2_0_E edg_2_1_S "		/>
		</vehicle>
		<vehicle id = "veh_194" type = "transport" depart = "194.000000" >
				<route edges ="edg_0_2_S edg_1_2_S edg_2_2_W edg_2_1_E edg_2_2_E "		/>
		</vehicle>
		<vehicle id = "veh_195" type = "bus" depart = "195.000000" >
				<route edges ="edg_1_3_W edg_1_2_N "		/>
		</vehicle>
		<vehicle id = "veh_196" type = "emergency" depart = "196.000000" >
				<route edges ="edg_2_0_E edg_2_1_S "		/>
		</vehicle>
		<vehicle id = "veh_197" type = "transport" depart = "197.000000" >
				<route edges ="edg_3_1_N edg_2_1_N edg_1_1_N "		/>
		</vehicle>
		<vehicle id = "veh_198" type = "transport" depart = "198.000000" >
				<route edges ="edg_3_1_N edg_2_1_W "		/>
		</vehicle>
		<vehicle id = "veh_199" type = "passenger" depart = "199.000000" >
				<route edges ="edg_1_3_W edg_1_2_W edg_1_1_W "		/>
		</vehicle>
		<vehicle id = "veh_200" type = "transport" depart = "200.000000" >
				<route edges ="edg_3_2_N edg_2_2_S "		/>
		</vehicle>
		<vehicle id = "veh_201" type = "transport" depart = "201.000000" >
				<route edges ="edg_2_3_W edg_2_2_S "		/>
		</vehicle>
		<vehicle id = "veh_202" type = "bus" depart = "202.000000" >
				<route edges ="edg_1_3_W edg_1_2_E "		/>
		</vehicle>
		<vehicle id = "veh_203" type = "bus" depart = "203.000000" >
				<route edges ="edg_0_1_S edg_1_1_N "		/>
		</vehicle>
		<vehicle id = "veh_204" type = "bus" depart = "204.000000" >
				<route edges ="edg_1_3_W edg_1_2_E "		/>
		</vehicle>
		<vehicle id = "veh_205" type = "passenger" depart = "205.000000" >
				<route edges ="edg_2_3_W edg_2_2_W edg_2_1_N edg_1_1_S edg_2_1_W "		/>
		</vehicle>
		<vehicle id = "veh_206" type = "passenger" depart = "206.000000" >
				<route edges ="edg_1_3_W edg_1_2_E "		/>
		</vehicle>
		<vehicle id = "veh_207" type = "bus" depart = "207.000000" >
				<route edges ="edg_1_3_W edg_1_2_S edg_2_2_E "		/>
		</vehicle>
		<vehicle id = "veh_208" type = "emergency" depart = "208.000000" >
				<route edges ="edg_1_0_E edg_1_1_E edg_1_2_S edg_2_2_N edg_1_2_N "		/>
		</vehicle>
		<vehicle id = "veh_209" type = "passenger" depart = "209.000000" >
				<route edges ="edg_0_2_S edg_1_2_W edg_1_1_S edg_2_1_W "		/>
		</vehicle>
		<vehicle id = "veh_210" type = "transport" depart = "210.000000" >
				<route edges ="edg_2_3_W edg_2_2_S "		/>
		</vehicle>
		<vehicle id = "veh_211" type = "emergency" depart = "211.000000" >
				<route edges ="edg_0_2_S edg_1_2_S edg_2_2_W edg_2_1_E edg_2_2_E "		/>
		</vehicle>
		<vehicle id = "veh_212" type = "transport" depart = "212.000000" >