<?xml version="1.0" encoding="UTF-8"?>

<!-- generated on Thu Jun 12 01:27:15 2014 by SUMO netconvert Version 0.19.0
<?xml version="1.0" encoding="UTF-8"?>

<configuration xmlns:xsi="http://www.w3.org/2001/XMLSchema-instance" xsi:noNamespaceSchemaLocation="http://sumo-sim.org/xsd/netconvertConfiguration.xsd">

    <input>
        <node-files value="GridNetwork.nod.xml"/>
        <edge-files value="GridNetwork.edg.xml"/>
        <type-files value="GridNetwork.typ.xml"/>
    </input>

    <output>
        <output-file value="GridNetwork.net.xml"/>
    </output>

    <report>
        <verbose value="true"/>
    </report>

</configuration>
-->

<net version="0.13" xmlns:xsi="http://www.w3.org/2001/XMLSchema-instance" xsi:noNamespaceSchemaLocation="http://sumo-sim.org/xsd/net_file.xsd">

    <location netOffset="500.00,500.00" convBoundary="0.00,0.00,1000.00,1000.00" origBoundary="-500.00,-500.00,500.00,500.00" projParameter="!"/>

    <edge id=":nod_0_1_0" function="internal">
        <lane id=":nod_0_1_0_0" index="0" speed="13.89" length="4.89" shape="201.68,1000.00 200.84,1001.26 200.00,1001.67 199.16,1001.26 198.32,1000.00"/>
    </edge>
    <edge id=":nod_0_2_0" function="internal">
        <lane id=":nod_0_2_0_0" index="0" speed="13.89" length="4.89" shape="401.68,1000.00 400.84,1001.26 400.00,1001.67 399.16,1001.26 398.32,1000.00"/>
    </edge>
    <edge id=":nod_0_3_0" function="internal">
        <lane id=":nod_0_3_0_0" index="0" speed="13.89" length="4.89" shape="601.67,1000.00 600.84,1001.26 600.00,1001.67 599.16,1001.26 598.33,1000.00"/>
    </edge>
    <edge id=":nod_0_4_0" function="internal">
        <lane id=":nod_0_4_0_0" index="0" speed="13.89" length="4.89" shape="801.67,1000.00 800.84,1001.26 800.00,1001.67 799.16,1001.26 798.33,1000.00"/>
    </edge>
    <edge id=":nod_1_0_0" function="internal">
        <lane id=":nod_1_0_0_0" index="0" speed="13.89" length="4.89" shape="0.00,801.67 -1.26,800.84 -1.67,800.00 -1.26,799.16 0.00,798.33"/>
    </edge>
    <edge id=":nod_1_1_0" function="internal">
        <lane id=":nod_1_1_0_0" index="0" speed="13.89" length="5.00" shape="194.97,808.12 194.78,806.77 194.20,805.80 193.23,805.22 191.88,805.02"/>
    </edge>
    <edge id=":nod_1_1_1" function="internal">
        <lane id=":nod_1_1_1_0" index="0" speed="13.89" length="16.25" shape="194.97,808.12 194.97,803.30 194.97,800.00 194.97,796.70 194.97,791.88"/>
        <lane id=":nod_1_1_1_1" index="1" speed="13.89" length="16.25" shape="198.32,808.12 198.32,803.30 198.32,800.00 198.32,796.70 198.32,791.88"/>
    </edge>
    <edge id=":nod_1_1_3" function="internal">
        <lane id=":nod_1_1_3_0" index="0" speed="13.89" length="6.85" shape="198.32,808.12 198.94,803.84 200.24,801.67"/>
    </edge>
    <edge id=":nod_1_1_4" function="internal">
        <lane id=":nod_1_1_4_0" index="0" speed="13.89" length="2.45" shape="198.32,808.12 199.16,806.87 200.00,806.45"/>
    </edge>
    <edge id=":nod_1_1_18" function="internal">
        <lane id=":nod_1_1_18_0" index="0" speed="13.89" length="8.95" shape="200.24,801.67 200.77,800.78 203.84,798.94 208.12,798.33"/>
    </edge>
    <edge id=":nod_1_1_19" function="internal">
        <lane id=":nod_1_1_19_0" index="0" speed="13.89" length="2.45" shape="200.00,806.45 200.84,806.87 201.68,808.12"/>
    </edge>
    <edge id=":nod_1_1_5" function="internal">
        <lane id=":nod_1_1_5_0" index="0" speed="13.89" length="5.00" shape="208.12,805.02 206.77,805.22 205.80,805.80 205.22,806.77 205.03,808.12"/>
    </edge>
    <edge id=":nod_1_1_6" function="internal">
        <lane id=":nod_1_1_6_0" index="0" speed="13.89" length="16.25" shape="208.12,801.67 203.30,801.67 200.00,801.67 196.70,801.67 191.88,801.67"/>
    </edge>
    <edge id=":nod_1_1_7" function="internal">
        <lane id=":nod_1_1_7_0" index="0" speed="13.89" length="3.13" shape="208.12,801.67 205.03,801.23"/>
    </edge>
    <edge id=":nod_1_1_8" function="internal">
        <lane id=":nod_1_1_8_0" index="0" speed="13.89" length="2.45" shape="208.12,801.67 206.87,800.84 206.45,800.00"/>
    </edge>
    <edge id=":nod_1_1_20" function="internal">
        <lane id=":nod_1_1_20_0" index="0" speed="13.89" length="12.67" shape="205.03,801.23 203.84,801.06 200.78,799.22 198.94,796.16 198.32,791.88"/>
    </edge>
    <edge id=":nod_1_1_21" function="internal">
        <lane id=":nod_1_1_21_0" index="0" speed="13.89" length="2.45" shape="206.45,800.00 206.87,799.16 208.12,798.33"/>
    </edge>
    <edge id=":nod_1_1_9" function="internal">
        <lane id=":nod_1_1_9_0" index="0" speed="13.89" length="5.00" shape="205.03,791.88 205.22,793.23 205.80,794.20 206.77,794.78 208.12,794.98"/>
    </edge>
    <edge id=":nod_1_1_10" function="internal">
        <lane id=":nod_1_1_10_0" index="0" speed="13.89" length="16.25" shape="205.03,791.88 205.03,796.70 205.03,800.00 205.03,803.30 205.03,808.12"/>
        <lane id=":nod_1_1_10_1" index="1" speed="13.89" length="16.25" shape="201.68,791.88 201.68,796.70 201.68,800.00 201.68,803.30 201.68,808.12"/>
    </edge>
    <edge id=":nod_1_1_12" function="internal">
        <lane id=":nod_1_1_12_0" index="0" speed="13.89" length="6.85" shape="201.68,791.88 201.06,796.16 199.76,798.33"/>
    </edge>
    <edge id=":nod_1_1_13" function="internal">
        <lane id=":nod_1_1_13_0" index="0" speed="13.89" length="2.45" shape="201.68,791.88 200.84,793.13 200.00,793.55"/>
    </edge>
    <edge id=":nod_1_1_22" function="internal">
        <lane id=":nod_1_1_22_0" index="0" speed="13.89" length="8.95" shape="199.76,798.33 199.23,799.22 196.16,801.06 191.88,801.67"/>
    </edge>
    <edge id=":nod_1_1_23" function="internal">
        <lane id=":nod_1_1_23_0" index="0" speed="13.89" length="2.45" shape="200.00,793.55 199.16,793.13 198.32,791.88"/>
    </edge>
    <edge id=":nod_1_1_14" function="internal">
        <lane id=":nod_1_1_14_0" index="0" speed="13.89" length="5.00" shape="191.88,794.98 193.23,794.78 194.20,794.20 194.78,793.23 194.97,791.88"/>
    </edge>
    <edge id=":nod_1_1_15" function="internal">
        <lane id=":nod_1_1_15_0" index="0" speed="13.89" length="16.25" shape="191.88,798.33 196.70,798.33 200.00,798.33 203.30,798.33 208.12,798.33"/>
    </edge>
    <edge id=":nod_1_1_16" function="internal">
        <lane id=":nod_1_1_16_0" index="0" speed="13.89" length="3.13" shape="191.88,798.33 194.97,798.77"/>
    </edge>
    <edge id=":nod_1_1_17" function="internal">
        <lane id=":nod_1_1_17_0" index="0" speed="13.89" length="2.45" shape="191.88,798.33 193.13,799.16 193.55,800.00"/>
    </edge>
    <edge id=":nod_1_1_24" function="internal">
        <lane id=":nod_1_1_24_0" index="0" speed="13.89" length="12.67" shape="194.97,798.77 196.16,798.94 199.22,800.78 201.06,803.84 201.68,808.12"/>
    </edge>
    <edge id=":nod_1_1_25" function="internal">
        <lane id=":nod_1_1_25_0" index="0" speed="13.89" length="2.45" shape="193.55,800.00 193.13,800.84 191.88,801.67"/>
    </edge>
    <edge id=":nod_1_2_0" function="internal">
        <lane id=":nod_1_2_0_0" index="0" speed="13.89" length="5.00" shape="394.98,808.12 394.78,806.77 394.20,805.80 393.23,805.22 391.88,805.02"/>
    </edge>
    <edge id=":nod_1_2_1" function="internal">
        <lane id=":nod_1_2_1_0" index="0" speed="13.89" length="16.25" shape="394.98,808.12 394.98,803.30 394.98,800.00 394.98,796.70 394.98,791.88"/>
        <lane id=":nod_1_2_1_1" index="1" speed="13.89" length="16.25" shape="398.32,808.12 398.32,803.30 398.32,800.00 398.32,796.70 398.32,791.88"/>
    </edge>
    <edge id=":nod_1_2_3" function="internal">
        <lane id=":nod_1_2_3_0" index="0" speed="13.89" length="6.85" shape="398.32,808.12 398.94,803.84 400.24,801.67"/>
    </edge>
    <edge id=":nod_1_2_4" function="internal">
        <lane id=":nod_1_2_4_0" index="0" speed="13.89" length="2.45" shape="398.32,808.12 399.16,806.87 400.00,806.45"/>
    </edge>
    <edge id=":nod_1_2_18" function="internal">
        <lane id=":nod_1_2_18_0" index="0" speed="13.89" length="8.95" shape="400.24,801.67 400.77,800.78 403.84,798.94 408.12,798.33"/>
    </edge>
    <edge id=":nod_1_2_19" function="internal">
        <lane id=":nod_1_2_19_0" index="0" speed="13.89" length="2.45" shape="400.00,806.45 400.84,806.87 401.68,808.12"/>
    </edge>
    <edge id=":nod_1_2_5" function="internal">
        <lane id=":nod_1_2_5_0" index="0" speed="13.89" length="5.00" shape="408.12,805.02 406.77,805.22 405.80,805.80 405.22,806.77 405.02,808.12"/>
    </edge>
    <edge id=":nod_1_2_6" function="internal">
        <lane id=":nod_1_2_6_0" index="0" speed="13.89" length="16.25" shape="408.12,801.67 403.30,801.67 400.00,801.67 396.70,801.67 391.88,801.67"/>
    </edge>
    <edge id=":nod_1_2_7" function="internal">
        <lane id=":nod_1_2_7_0" index="0" speed="13.89" length="3.13" shape="408.12,801.67 405.02,801.23"/>
    </edge>
    <edge id=":nod_1_2_8" function="internal">
        <lane id=":nod_1_2_8_0" index="0" speed="13.89" length="2.45" shape="408.12,801.67 406.87,800.84 406.45,800.00"/>
    </edge>
    <edge id=":nod_1_2_20" function="internal">
        <lane id=":nod_1_2_20_0" index="0" speed="13.89" length="12.67" shape="405.02,801.23 403.84,801.06 400.78,799.22 398.94,796.16 398.32,791.88"/>
    </edge>
    <edge id=":nod_1_2_21" function="internal">
        <lane id=":nod_1_2_21_0" index="0" speed="13.89" length="2.45" shape="406.45,800.00 406.87,799.16 408.12,798.33"/>
    </edge>
    <edge id=":nod_1_2_9" function="internal">
        <lane id=":nod_1_2_9_0" index="0" speed="13.89" length="5.00" shape="405.02,791.88 405.22,793.23 405.80,794.20 406.77,794.78 408.12,794.98"/>
    </edge>
    <edge id=":nod_1_2_10" function="internal">
        <lane id=":nod_1_2_10_0" index="0" speed="13.89" length="16.25" shape="405.02,791.88 405.02,796.70 405.02,800.00 405.02,803.30 405.02,808.12"/>
        <lane id=":nod_1_2_10_1" index="1" speed="13.89" length="16.25" shape="401.68,791.88 401.68,796.70 401.68,800.00 401.68,803.30 401.68,808.12"/>
    </edge>
    <edge id=":nod_1_2_12" function="internal">
        <lane id=":nod_1_2_12_0" index="0" speed="13.89" length="6.85" shape="401.68,791.88 401.06,796.16 399.76,798.33"/>
    </edge>
    <edge id=":nod_1_2_13" function="internal">
        <lane id=":nod_1_2_13_0" index="0" speed="13.89" length="2.45" shape="401.68,791.88 400.84,793.13 400.00,793.55"/>
    </edge>
    <edge id=":nod_1_2_22" function="internal">
        <lane id=":nod_1_2_22_0" index="0" speed="13.89" length="8.95" shape="399.76,798.33 399.23,799.22 396.16,801.06 391.88,801.67"/>
    </edge>
    <edge id=":nod_1_2_23" function="internal">
        <lane id=":nod_1_2_23_0" index="0" speed="13.89" length="2.45" shape="400.00,793.55 399.16,793.13 398.32,791.88"/>
    </edge>
    <edge id=":nod_1_2_14" function="internal">
        <lane id=":nod_1_2_14_0" index="0" speed="13.89" length="5.00" shape="391.88,794.98 393.23,794.78 394.20,794.20 394.78,793.23 394.98,791.88"/>
    </edge>
    <edge id=":nod_1_2_15" function="internal">
        <lane id=":nod_1_2_15_0" index="0" speed="13.89" length="16.25" shape="391.88,798.33 396.70,798.33 400.00,798.33 403.30,798.33 408.12,798.33"/>
    </edge>
    <edge id=":nod_1_2_16" function="internal">
        <lane id=":nod_1_2_16_0" index="0" speed="13.89" length="3.13" shape="391.88,798.33 394.98,798.77"/>
    </edge>
    <edge id=":nod_1_2_17" function="internal">
        <lane id=":nod_1_2_17_0" index="0" speed="13.89" length="2.45" shape="391.88,798.33 393.13,799.16 393.55,800.00"/>
    </edge>
    <edge id=":nod_1_2_24" function="internal">
        <lane id=":nod_1_2_24_0" index="0" speed="13.89" length="12.67" shape="394.98,798.77 396.16,798.94 399.22,800.78 401.06,803.84 401.68,808.12"/>
    </edge>
    <edge id=":nod_1_2_25" function="internal">
        <lane id=":nod_1_2_25_0" index="0" speed="13.89" length="2.45" shape="393.55,800.00 393.13,800.84 391.88,801.67"/>
    </edge>
    <edge id=":nod_1_3_0" function="internal">
        <lane id=":nod_1_3_0_0" index="0" speed="13.89" length="5.00" shape="594.98,808.12 594.78,806.77 594.20,805.80 593.23,805.22 591.88,805.02"/>
    </edge>
    <edge id=":nod_1_3_1" function="internal">
        <lane id=":nod_1_3_1_0" index="0" speed="13.89" length="16.25" shape="594.98,808.12 594.98,803.30 594.98,800.00 594.98,796.70 594.98,791.88"/>
        <lane id=":nod_1_3_1_1" index="1" speed="13.89" length="16.25" shape="598.33,808.12 598.33,803.30 598.33,800.00 598.33,796.70 598.33,791.88"/>
    </edge>
    <edge id=":nod_1_3_3" function="internal">
        <lane id=":nod_1_3_3_0" index="0" speed="13.89" length="6.85" shape="598.33,808.12 598.94,803.84 600.24,801.67"/>
    </edge>
    <edge id=":nod_1_3_4" function="internal">
        <lane id=":nod_1_3_4_0" index="0" speed="13.89" length="2.45" shape="598.33,808.12 599.16,806.87 600.00,806.45"/>
    </edge>
    <edge id=":nod_1_3_18" function="internal">
        <lane id=":nod_1_3_18_0" index="0" speed="13.89" length="8.95" shape="600.24,801.67 600.78,800.78 603.84,798.94 608.12,798.33"/>
    </edge>
    <edge id=":nod_1_3_19" function="internal">
        <lane id=":nod_1_3_19_0" index="0" speed="13.89" length="2.45" shape="600.00,806.45 600.84,806.87 601.67,808.12"/>
    </edge>
    <edge id=":nod_1_3_5" function="internal">
        <lane id=":nod_1_3_5_0" index="0" speed="13.89" length="5.00" shape="608.12,805.02 606.77,805.22 605.80,805.80 605.22,806.77 605.02,808.12"/>
    </edge>
    <edge id=":nod_1_3_6" function="internal">
        <lane id=":nod_1_3_6_0" index="0" speed="13.89" length="16.25" shape="608.12,801.67 603.30,801.67 600.00,801.67 596.70,801.67 591.88,801.67"/>
    </edge>
    <edge id=":nod_1_3_7" function="internal">
        <lane id=":nod_1_3_7_0" index="0" speed="13.89" length="3.13" shape="608.12,801.67 605.02,801.23"/>
    </edge>
    <edge id=":nod_1_3_8" function="internal">
        <lane id=":nod_1_3_8_0" index="0" speed="13.89" length="2.45" shape="608.12,801.67 606.87,800.84 606.45,800.00"/>
    </edge>
    <edge id=":nod_1_3_20" function="internal">
        <lane id=":nod_1_3_20_0" index="0" speed="13.89" length="12.67" shape="605.02,801.23 603.84,801.06 600.78,799.22 598.94,796.16 598.33,791.88"/>
    </edge>
    <edge id=":nod_1_3_21" function="internal">
        <lane id=":nod_1_3_21_0" index="0" speed="13.89" length="2.45" shape="606.45,800.00 606.87,799.16 608.12,798.33"/>
    </edge>
    <edge id=":nod_1_3_9" function="internal">
        <lane id=":nod_1_3_9_0" index="0" speed="13.89" length="5.00" shape="605.02,791.88 605.22,793.23 605.80,794.20 606.77,794.78 608.12,794.98"/>
    </edge>
    <edge id=":nod_1_3_10" function="internal">
        <lane id=":nod_1_3_10_0" index="0" speed="13.89" length="16.25" shape="605.02,791.88 605.02,796.70 605.02,800.00 605.02,803.30 605.02,808.12"/>
        <lane id=":nod_1_3_10_1" index="1" speed="13.89" length="16.25" shape="601.67,791.88 601.67,796.70 601.67,800.00 601.67,803.30 601.67,808.12"/>
    </edge>
    <edge id=":nod_1_3_12" function="internal">
        <lane id=":nod_1_3_12_0" index="0" speed="13.89" length="6.85" shape="601.67,791.88 601.06,796.16 599.76,798.33"/>
    </edge>
    <edge id=":nod_1_3_13" function="internal">
        <lane id=":nod_1_3_13_0" index="0" speed="13.89" length="2.45" shape="601.67,791.88 600.84,793.13 600.00,793.55"/>
    </edge>
    <edge id=":nod_1_3_22" function="internal">
        <lane id=":nod_1_3_22_0" index="0" speed="13.89" length="8.95" shape="599.76,798.33 599.22,799.22 596.16,801.06 591.88,801.67"/>
    </edge>
    <edge id=":nod_1_3_23" function="internal">
        <lane id=":nod_1_3_23_0" index="0" speed="13.89" length="2.45" shape="600.00,793.55 599.16,793.13 598.33,791.88"/>
    </edge>
    <edge id=":nod_1_3_14" function="internal">
        <lane id=":nod_1_3_14_0" index="0" speed="13.89" length="5.00" shape="591.88,794.98 593.23,794.78 594.20,794.20 594.78,793.23 594.98,791.88"/>
    </edge>
    <edge id=":nod_1_3_15" function="internal">
        <lane id=":nod_1_3_15_0" index="0" speed="13.89" length="16.25" shape="591.88,798.33 596.70,798.33 600.00,798.33 603.30,798.33 608.12,798.33"/>
    </edge>
    <edge id=":nod_1_3_16" function="internal">
        <lane id=":nod_1_3_16_0" index="0" speed="13.89" length="3.13" shape="591.88,798.33 594.98,798.77"/>
    </edge>
    <edge id=":nod_1_3_17" function="internal">
        <lane id=":nod_1_3_17_0" index="0" speed="13.89" length="2.45" shape="591.88,798.33 593.13,799.16 593.55,800.00"/>
    </edge>
    <edge id=":nod_1_3_24" function="internal">
        <lane id=":nod_1_3_24_0" index="0" speed="13.89" length="12.67" shape="594.98,798.77 596.16,798.94 599.22,800.78 601.06,803.84 601.67,808.12"/>
    </edge>
    <edge id=":nod_1_3_25" function="internal">
        <lane id=":nod_1_3_25_0" index="0" speed="13.89" length="2.45" shape="593.55,800.00 593.13,800.84 591.88,801.67"/>
    </edge>
    <edge id=":nod_1_4_0" function="internal">
        <lane id=":nod_1_4_0_0" index="0" speed="13.89" length="5.00" shape="794.98,808.12 794.78,806.77 794.20,805.80 793.23,805.22 791.88,805.02"/>
    </edge>
    <edge id=":nod_1_4_1" function="internal">
        <lane id=":nod_1_4_1_0" index="0" speed="13.89" length="16.25" shape="794.98,808.12 794.98,803.30 794.98,800.00 794.98,796.70 794.98,791.88"/>
        <lane id=":nod_1_4_1_1" index="1" speed="13.89" length="16.25" shape="798.33,808.12 798.33,803.30 798.33,800.00 798.33,796.70 798.33,791.88"/>
    </edge>
    <edge id=":nod_1_4_3" function="internal">
        <lane id=":nod_1_4_3_0" index="0" speed="13.89" length="6.85" shape="798.33,808.12 798.94,803.84 800.24,801.67"/>
    </edge>
    <edge id=":nod_1_4_4" function="internal">
        <lane id=":nod_1_4_4_0" index="0" speed="13.89" length="2.45" shape="798.33,808.12 799.16,806.87 800.00,806.45"/>
    </edge>
    <edge id=":nod_1_4_18" function="internal">
        <lane id=":nod_1_4_18_0" index="0" speed="13.89" length="8.95" shape="800.24,801.67 800.78,800.78 803.84,798.94 808.12,798.33"/>
    </edge>
    <edge id=":nod_1_4_19" function="internal">
        <lane id=":nod_1_4_19_0" index="0" speed="13.89" length="2.45" shape="800.00,806.45 800.84,806.87 801.67,808.12"/>
    </edge>
    <edge id=":nod_1_4_5" function="internal">
        <lane id=":nod_1_4_5_0" index="0" speed="13.89" length="5.00" shape="808.12,805.02 806.77,805.22 805.80,805.80 805.22,806.77 805.02,808.12"/>
    </edge>
    <edge id=":nod_1_4_6" function="internal">
        <lane id=":nod_1_4_6_0" index="0" speed="13.89" length="16.25" shape="808.12,801.67 803.30,801.67 800.00,801.67 796.70,801.67 791.88,801.67"/>
    </edge>
    <edge id=":nod_1_4_7" function="internal">
        <lane id=":nod_1_4_7_0" index="0" speed="13.89" length="3.13" shape="808.12,801.67 805.02,801.23"/>
    </edge>
    <edge id=":nod_1_4_8" function="internal">
        <lane id=":nod_1_4_8_0" index="0" speed="13.89" length="2.45" shape="808.12,801.67 806.87,800.84 806.45,800.00"/>
    </edge>
    <edge id=":nod_1_4_20" function="internal">
        <lane id=":nod_1_4_20_0" index="0" speed="13.89" length="12.67" shape="805.02,801.23 803.84,801.06 800.78,799.22 798.94,796.16 798.33,791.88"/>
    </edge>
    <edge id=":nod_1_4_21" function="internal">
        <lane id=":nod_1_4_21_0" index="0" speed="13.89" length="2.45" shape="806.45,800.00 806.87,799.16 808.12,798.33"/>
    </edge>
    <edge id=":nod_1_4_9" function="internal">
        <lane id=":nod_1_4_9_0" index="0" speed="13.89" length="5.00" shape="805.02,791.88 805.22,793.23 805.80,794.20 806.77,794.78 808.12,794.98"/>
    </edge>
    <edge id=":nod_1_4_10" function="internal">
        <lane id=":nod_1_4_10_0" index="0" speed="13.89" length="16.25" shape="805.02,791.88 805.02,796.70 805.02,800.00 805.02,803.30 805.02,808.12"/>
        <lane id=":nod_1_4_10_1" index="1" speed="13.89" length="16.25" shape="801.67,791.88 801.67,796.70 801.67,800.00 801.67,803.30 801.67,808.12"/>
    </edge>
    <edge id=":nod_1_4_12" function="internal">
        <lane id=":nod_1_4_12_0" index="0" speed="13.89" length="6.85" shape="801.67,791.88 801.06,796.16 799.76,798.33"/>
    </edge>
    <edge id=":nod_1_4_13" function="internal">
        <lane id=":nod_1_4_13_0" index="0" speed="13.89" length="2.45" shape="801.67,791.88 800.84,793.13 800.00,793.55"/>
    </edge>
    <edge id=":nod_1_4_22" function="internal">
        <lane id=":nod_1_4_22_0" index="0" speed="13.89" length="8.95" shape="799.76,798.33 799.22,799.22 796.16,801.06 791.88,801.67"/>
    </edge>
    <edge id=":nod_1_4_23" function="internal">
        <lane id=":nod_1_4_23_0" index="0" speed="13.89" length="2.45" shape="800.00,793.55 799.16,793.13 798.33,791.88"/>
    </edge>
    <edge id=":nod_1_4_14" function="internal">
        <lane id=":nod_1_4_14_0" index="0" speed="13.89" length="5.00" shape="791.88,794.98 793.23,794.78 794.20,794.20 794.78,793.23 794.98,791.88"/>
    </edge>
    <edge id=":nod_1_4_15" function="internal">
        <lane id=":nod_1_4_15_0" index="0" speed="13.89" length="16.25" shape="791.88,798.33 796.70,798.33 800.00,798.33 803.30,798.33 808.12,798.33"/>
    </edge>
    <edge id=":nod_1_4_16" function="internal">
        <lane id=":nod_1_4_16_0" index="0" speed="13.89" length="3.13" shape="791.88,798.33 794.98,798.77"/>
    </edge>
    <edge id=":nod_1_4_17" function="internal">
        <lane id=":nod_1_4_17_0" index="0" speed="13.89" length="2.45" shape="791.88,798.33 793.13,799.16 793.55,800.00"/>
    </edge>
    <edge id=":nod_1_4_24" function="internal">
        <lane id=":nod_1_4_24_0" index="0" speed="13.89" length="12.67" shape="794.98,798.77 796.16,798.94 799.22,800.78 801.06,803.84 801.67,808.12"/>
    </edge>
    <edge id=":nod_1_4_25" function="internal">
        <lane id=":nod_1_4_25_0" index="0" speed="13.89" length="2.45" shape="793.55,800.00 793.13,800.84 791.88,801.67"/>
    </edge>
    <edge id=":nod_1_5_0" function="internal">
        <lane id=":nod_1_5_0_0" index="0" speed="13.89" length="4.89" shape="1000.00,798.33 1001.26,799.16 1001.67,800.00 1001.26,800.84 1000.00,801.67"/>
    </edge>
    <edge id=":nod_2_0_0" function="internal">
        <lane id=":nod_2_0_0_0" index="0" speed="13.89" length="4.89" shape="0.00,601.67 -1.26,600.84 -1.67,600.00 -1.26,599.16 0.00,598.33"/>
    </edge>
    <edge id=":nod_2_1_0" function="internal">
        <lane id=":nod_2_1_0_0" index="0" speed="13.89" length="5.00" shape="194.97,608.12 194.78,606.77 194.20,605.80 193.23,605.22 191.88,605.02"/>
    </edge>
    <edge id=":nod_2_1_1" function="internal">
        <lane id=":nod_2_1_1_0" index="0" speed="13.89" length="16.25" shape="194.97,608.12 194.97,603.30 194.97,600.00 194.97,596.70 194.97,591.88"/>
        <lane id=":nod_2_1_1_1" index="1" speed="13.89" length="16.25" shape="198.32,608.12 198.32,603.30 198.32,600.00 198.32,596.70 198.32,591.88"/>
    </edge>
    <edge id=":nod_2_1_3" function="internal">
        <lane id=":nod_2_1_3_0" index="0" speed="13.89" length="6.85" shape="198.32,608.12 198.94,603.84 200.24,601.67"/>
    </edge>
    <edge id=":nod_2_1_4" function="internal">
        <lane id=":nod_2_1_4_0" index="0" speed="13.89" length="2.45" shape="198.32,608.12 199.16,606.87 200.00,606.45"/>
    </edge>
    <edge id=":nod_2_1_18" function="internal">
        <lane id=":nod_2_1_18_0" index="0" speed="13.89" length="8.95" shape="200.24,601.67 200.77,600.78 203.84,598.94 208.12,598.33"/>
    </edge>
    <edge id=":nod_2_1_19" function="internal">
        <lane id=":nod_2_1_19_0" index="0" speed="13.89" length="2.45" shape="200.00,606.45 200.84,606.87 201.68,608.12"/>
    </edge>
    <edge id=":nod_2_1_5" function="internal">
        <lane id=":nod_2_1_5_0" index="0" speed="13.89" length="5.00" shape="208.12,605.02 206.77,605.22 205.80,605.80 205.22,606.77 205.03,608.12"/>
    </edge>
    <edge id=":nod_2_1_6" function="internal">
        <lane id=":nod_2_1_6_0" index="0" speed="13.89" length="16.25" shape="208.12,601.67 203.30,601.67 200.00,601.67 196.70,601.67 191.88,601.67"/>
    </edge>
    <edge id=":nod_2_1_7" function="internal">
        <lane id=":nod_2_1_7_0" index="0" speed="13.89" length="3.13" shape="208.12,601.67 205.03,601.23"/>
    </edge>
    <edge id=":nod_2_1_8" function="internal">
        <lane id=":nod_2_1_8_0" index="0" speed="13.89" length="2.45" shape="208.12,601.67 206.87,600.84 206.45,600.00"/>
    </edge>
    <edge id=":nod_2_1_20" function="internal">
        <lane id=":nod_2_1_20_0" index="0" speed="13.89" length="12.67" shape="205.03,601.23 203.84,601.06 200.78,599.22 198.94,596.16 198.32,591.88"/>
    </edge>
    <edge id=":nod_2_1_21" function="internal">
        <lane id=":nod_2_1_21_0" index="0" speed="13.89" length="2.45" shape="206.45,600.00 206.87,599.16 208.12,598.33"/>
    </edge>
    <edge id=":nod_2_1_9" function="internal">
        <lane id=":nod_2_1_9_0" index="0" speed="13.89" length="5.00" shape="205.03,591.88 205.22,593.23 205.80,594.20 206.77,594.78 208.12,594.98"/>
    </edge>
    <edge id=":nod_2_1_10" function="internal">
        <lane id=":nod_2_1_10_0" index="0" speed="13.89" length="16.25" shape="205.03,591.88 205.03,596.70 205.03,600.00 205.03,603.30 205.03,608.12"/>
        <lane id=":nod_2_1_10_1" index="1" speed="13.89" length="16.25" shape="201.68,591.88 201.68,596.70 201.68,600.00 201.68,603.30 201.68,608.12"/>
    </edge>
    <edge id=":nod_2_1_12" function="internal">
        <lane id=":nod_2_1_12_0" index="0" speed="13.89" length="6.85" shape="201.68,591.88 201.06,596.16 199.76,598.33"/>
    </edge>
    <edge id=":nod_2_1_13" function="internal">
        <lane id=":nod_2_1_13_0" index="0" speed="13.89" length="2.45" shape="201.68,591.88 200.84,593.13 200.00,593.55"/>
    </edge>
    <edge id=":nod_2_1_22" function="internal">
        <lane id=":nod_2_1_22_0" index="0" speed="13.89" length="8.95" shape="199.76,598.33 199.23,599.22 196.16,601.06 191.88,601.67"/>
    </edge>
    <edge id=":nod_2_1_23" function="internal">
        <lane id=":nod_2_1_23_0" index="0" speed="13.89" length="2.45" shape="200.00,593.55 199.16,593.13 198.32,591.88"/>
    </edge>
    <edge id=":nod_2_1_14" function="internal">
        <lane id=":nod_2_1_14_0" index="0" speed="13.89" length="5.00" shape="191.88,594.98 193.23,594.78 194.20,594.20 194.78,593.23 194.97,591.88"/>
    </edge>
    <edge id=":nod_2_1_15" function="internal">
        <lane id=":nod_2_1_15_0" index="0" speed="13.89" length="16.25" shape="191.88,598.33 196.70,598.33 200.00,598.33 203.30,598.33 208.12,598.33"/>
    </edge>
    <edge id=":nod_2_1_16" function="internal">
        <lane id=":nod_2_1_16_0" index="0" speed="13.89" length="3.13" shape="191.88,598.33 194.97,598.77"/>
    </edge>
    <edge id=":nod_2_1_17" function="internal">
        <lane id=":nod_2_1_17_0" index="0" speed="13.89" length="2.45" shape="191.88,598.33 193.13,599.16 193.55,600.00"/>
    </edge>
    <edge id=":nod_2_1_24" function="internal">
        <lane id=":nod_2_1_24_0" index="0" speed="13.89" length="12.67" shape="194.97,598.77 196.16,598.94 199.22,600.78 201.06,603.84 201.68,608.12"/>
    </edge>
    <edge id=":nod_2_1_25" function="internal">
        <lane id=":nod_2_1_25_0" index="0" speed="13.89" length="2.45" shape="193.55,600.00 193.13,600.84 191.88,601.67"/>
    </edge>
    <edge id=":nod_2_2_0" function="internal">
        <lane id=":nod_2_2_0_0" index="0" speed="13.89" length="5.00" shape="394.98,608.12 394.78,606.77 394.20,605.80 393.23,605.22 391.88,605.02"/>
    </edge>
    <edge id=":nod_2_2_1" function="internal">
        <lane id=":nod_2_2_1_0" index="0" speed="13.89" length="16.25" shape="394.98,608.12 394.98,603.30 394.98,600.00 394.98,596.70 394.98,591.88"/>
        <lane id=":nod_2_2_1_1" index="1" speed="13.89" length="16.25" shape="398.32,608.12 398.32,603.30 398.32,600.00 398.32,596.70 398.32,591.88"/>
    </edge>
    <edge id=":nod_2_2_3" function="internal">
        <lane id=":nod_2_2_3_0" index="0" speed="13.89" length="6.85" shape="398.32,608.12 398.94,603.84 400.24,601.67"/>
    </edge>
    <edge id=":nod_2_2_4" function="internal">
        <lane id=":nod_2_2_4_0" index="0" speed="13.89" length="2.45" shape="398.32,608.12 399.16,606.87 400.00,606.45"/>
    </edge>
    <edge id=":nod_2_2_18" function="internal">
        <lane id=":nod_2_2_18_0" index="0" speed="13.89" length="8.95" shape="400.24,601.67 400.77,600.78 403.84,598.94 408.12,598.33"/>
    </edge>
    <edge id=":nod_2_2_19" function="internal">
        <lane id=":nod_2_2_19_0" index="0" speed="13.89" length="2.45" shape="400.00,606.45 400.84,606.87 401.68,608.12"/>
    </edge>
    <edge id=":nod_2_2_5" function="internal">
        <lane id=":nod_2_2_5_0" index="0" speed="13.89" length="5.00" shape="408.12,605.02 406.77,605.22 405.80,605.80 405.22,606.77 405.02,608.12"/>
    </edge>
    <edge id=":nod_2_2_6" function="internal">
        <lane id=":nod_2_2_6_0" index="0" speed="13.89" length="16.25" shape="408.12,601.67 403.30,601.67 400.00,601.67 396.70,601.67 391.88,601.67"/>
    </edge>
    <edge id=":nod_2_2_7" function="internal">
        <lane id=":nod_2_2_7_0" index="0" speed="13.89" length="3.13" shape="408.12,601.67 405.02,601.23"/>
    </edge>
    <edge id=":nod_2_2_8" function="internal">
        <lane id=":nod_2_2_8_0" index="0" speed="13.89" length="2.45" shape="408.12,601.67 406.87,600.84 406.45,600.00"/>
    </edge>
    <edge id=":nod_2_2_20" function="internal">
        <lane id=":nod_2_2_20_0" index="0" speed="13.89" length="12.67" shape="405.02,601.23 403.84,601.06 400.78,599.22 398.94,596.16 398.32,591.88"/>
    </edge>
    <edge id=":nod_2_2_21" function="internal">
        <lane id=":nod_2_2_21_0" index="0" speed="13.89" length="2.45" shape="406.45,600.00 406.87,599.16 408.12,598.33"/>
    </edge>
    <edge id=":nod_2_2_9" function="internal">
        <lane id=":nod_2_2_9_0" index="0" speed="13.89" length="5.00" shape="405.02,591.88 405.22,593.23 405.80,594.20 406.77,594.78 408.12,594.98"/>
    </edge>
    <edge id=":nod_2_2_10" function="internal">