<?xml version="1.0" encoding="UTF-8"?>
	<edges xmlns:xsi="http://www.w3.org/2001/XMLSchema-instance" xsi:noNamespaceSchemaLocation="Data/GridNetwork/GridNetwork.edg.xml">
	
		<edge id="edg_0_1_S" from="nod_0_1" to="nod_1_1" type="secondary.urban"		/>
		<edge id="edg_0_2_S" from="nod_0_2" to="nod_1_2" type="secondary.urban"		/>
		<edge id="edg_1_0_E" from="nod_1_0" to="nod_1_1" type="secondary.urban"		/>
		<edge id="edg_1_1_N" from="nod_1_1" to="nod_0_1" type="secondary.urban"		/>
		<edge id="edg_1_1_S" from="nod_1_1" to="nod_2_1" type="secondary.urban"		/>
		<edge id="edg_1_1_W" from="nod_1_1" to="nod_1_0" type="secondary.urban"		/>
		<edge id="edg_1_1_E" from="nod_1_1" to="nod_1_2" type="secondary.urban"		/>
		<edge id="edg_1_2_N" from="nod_1_2" to="nod_0_2" type="secondary.urban"		/>
		<edge id="edg_1_2_S" from="nod_1_2" to="nod_2_2" type="secondary.urban"		/>
		<edge id="edg_1_2_W" from="nod_1_2" to="nod_1_1" type="secondary.urban"		/>
		<edge id="edg_1_2_E" from="nod_1_2" to="nod_1_3" type="secondary.urban"		/>
		<edge id="edg_1_3_W" from="nod_1_3" to="nod_1_2" type="secondary.urban"		/>
		<edge id="edg_2_0_E" from="nod_2_0" to="nod_2_1" type="secondary.urban"		/>
		<edge id="edg_2_1_N" from="nod_2_1" to="nod_1_1" type="secondary.urban"		/>
		<edge id="edg_2_1_S" from="nod_2_1" to="nod_3_1" type="secondary.urban"		/>
		<edge id="edg_2_1_W" from="nod_2_1" to="nod_2_0" type="secondary.urban"		/>
		<edge id="edg_2_1_E" from="nod_2_1" to="nod_2_2" type="secondary.urban"		/>
		<edge id="edg_2_2_N" from="nod_2_2" to="nod_1_2" type="secondary.urban"		/>
		<edge id="edg_2_2_S" from="nod_2_2" to="nod_3_2" type="secondary.urban"		/>
		<edge id="edg_2_2_W" from="nod_2_2" to="nod_2_1" type="secondary.urban"		/>
		<edge id="edg_2_2_E" from="nod_2_2" to="nod_2_3" type="secondary.urban"		/>
		<edge id="edg_2_3_W" from="nod_2_3" to="nod_2_2" type="secondary.urban"		/>
		<edge id="edg_3_1_N" from="nod_3_1" to="nod_2_1" type="secondary.urban"		/>
		<edge id="edg_3_2_N" from="nod_3_2" to="nod_2_2" type="secondary.urban"		/>
</edges>
