<?xml version="1.0" encoding="UTF-8"?>
	<routes xmlns:xsi="http://www.w3.org/2001/XMLSchema-instance" xsi:noNamespaceSchemaLocation="Data/GridNetwork/GridNetwork.rou.xml">
	
		<vType id = "passenger" accel = "0.800000"	decel = "4.500000" minGap = "2.500000" sigma = "0.500000" color = "1,1,0" length = "5.000000" maxSpeed = "16.670000" guiShape = "passenger"		/>
		<vType id = "emergency" accel = "1.000000"	decel = "5.500000" minGap = "2.500000" sigma = "0.700000" color = "1,0,0" length = "7.000000" maxSpeed = "30.000000" guiShape = "passenger/van"		/>
		<vType id = "transport" accel = "0.800000"	decel = "4.500000" minGap = "3.000000" sigma = "0.500000" color = "0,0,1" length = "10.000000" maxSpeed = "25.000000" guiShape = "transport"		/>
		<vType id = "bus" accel = "0.800000"	decel = "4.500000" minGap = "3.000000" sigma = "0.500000" color = "0,1,0" length = "10.000000" maxSpeed = "25.000000" guiShape = "bus"		/>
		<route	id = "rou_0" edges ="edg_1_3_W edg_1_2_N "	/>
		<route	id = "rou_1" edges ="edg_2_0_E edg_2_1_N edg_1_1_N "	/>
		<route	id = "rou_2" edges ="edg_2_3_W edg_2_2_S "	/>
		<route	id = "rou_3" edges ="edg_1_0_E edg_1_1_W "	/>
		<route	id = "rou_4" edges ="edg_1_3_W edg_1_2_E "	/>
		<route	id = "rou_5" edges ="edg_2_3_W edg_2_2_E "	/>
		<route	id = "rou_6" edges ="edg_3_2_N edg_2_2_N edg_1_2_E "	/>
		<route	id = "rou_7" edges ="edg_2_0_E edg_2_1_S "	/>
		<route	id = "rou_8" edges ="edg_2_0_E edg_2_1_N edg_1_1_S edg_2_1_S "	/>
		<route	id = "rou_9" edges ="edg_2_0_E edg_2_1_E edg_2_2_N edg_1_2_W edg_1_1_W "	/>
		<route	id = "rou_10" edges ="edg_1_3_W edg_1_2_S edg_2_2_E "	/>
		<route	id = "rou_11" edges ="edg_3_2_N edg_2_2_W edg_2_1_W "	/>
		<route	id = "rou_12" edges ="edg_1_0_E edg_1_1_S edg_2_1_N edg_1_1_W "	/>
		<route	id = "rou_13" edges ="edg_3_2_N edg_2_2_E "	/>
		<route	id = "rou_14" edges ="edg_0_2_S edg_1_2_W edg_1_1_E edg_1_2_S edg_2_2_W edg_2_1_S "	/>
		<route	id = "rou_15" edges ="edg_0_2_S edg_1_2_S edg_2_2_S "	/>
		<route	id = "rou_16" edges ="edg_1_0_E edg_1_1_N "	/>
		<route	id = "rou_17" edges ="edg_3_2_N edg_2_2_E "	/>
		<route	id = "rou_18" edges ="edg_0_1_S edg_1_1_W "	/>
		<route	id = "rou_19" edges ="edg_1_3_W edg_1_2_S edg_2_2_E "	/>
		<route	id = "rou_20" edges ="edg_0_2_S edg_1_2_S edg_2_2_W edg_2_1_S "	/>
		<route	id = "rou_21" edges ="edg_2_3_W edg_2_2_E "	/>
		<route	id = "rou_22" edges ="edg_3_2_N edg_2_2_S "	/>
		<route	id = "rou_23" edges ="edg_2_0_E edg_2_1_E edg_2_2_S "	/>
		<route	id = "rou_24" edges ="edg_0_2_S edg_1_2_N "	/>
		<route	id = "rou_25" edges ="edg_0_1_S edg_1_1_N "	/>
		<route	id = "rou_26" edges ="edg_3_1_N edg_2_1_E edg_2_2_W edg_2_1_S "	/>
		<route	id = "rou_27" edges ="edg_2_0_E edg_2_1_N edg_1_1_S edg_2_1_E edg_2_2_E "	/>
		<route	id = "rou_28" edges ="edg_1_3_W edg_1_2_W edg_1_1_E edg_1_2_N "	/>
		<route	id = "rou_29" edges ="edg_2_0_E edg_2_1_N edg_1_1_E edg_1_2_S edg_2_2_N edg_1_2_N "	/>
		<route	id = "rou_30" edges ="edg_1_3_W edg_1_2_N "	/>
		<route	id = "rou_31" edges ="edg_3_1_N edg_2_1_E edg_2_2_S "	/>
		<route	id = "rou_32" edges ="edg_1_3_W edg_1_2_E "	/>
		<route	id = "rou_33" edges ="edg_2_3_W edg_2_2_N edg_1_2_N "	/>
		<route	id = "rou_34" edges ="edg_0_2_S edg_1_2_N "	/>
		<route	id = "rou_35" edges ="edg_0_1_S edg_1_1_W "	/>
		<route	id = "rou_36" edges ="edg_1_3_W edg_1_2_N "	/>
		<route	id = "rou_37" edges ="edg_1_3_W edg_1_2_N "	/>
		<route	id = "rou_38" edges ="edg_3_1_N edg_2_1_E edg_2_2_W edg_2_1_W "	/>
		<route	id = "rou_39" edges ="edg_2_0_E edg_2_1_N edg_1_1_N "	/>
		<route	id = "rou_40" edges ="edg_0_2_S edg_1_2_N "	/>
		<route	id = "rou_41" edges ="edg_2_3_W edg_2_2_N edg_1_2_E "	/>
		<route	id = "rou_42" edges ="edg_1_3_W edg_1_2_W edg_1_1_N "	/>
		<route	id = "rou_43" edges ="edg_0_2_S edg_1_2_W edg_1_1_E edg_1_2_W edg_1_1_W "	/>
		<route	id = "rou_44" edges ="edg_2_3_W edg_2_2_N edg_1_2_W edg_1_1_N "	/>
		<route	id = "rou_45" edges ="edg_1_0_E edg_1_1_S edg_2_1_W "	/>
		<route	id = "rou_46" edges ="edg_3_1_N edg_2_1_S "	/>
		<route	id = "rou_47" edges ="edg_1_3_W edg_1_2_N "	/>
		<route	id = "rou_48" edges ="edg_3_2_N edg_2_2_S "	/>
		<route	id = "rou_49" edges ="edg_0_1_S edg_1_1_S edg_2_1_E edg_2_2_S "	/>
		<route	id = "rou_50" edges ="edg_1_3_W edg_1_2_S edg_2_2_E "	/>
		<route	id = "rou_51" edges ="edg_2_3_W edg_2_2_N edg_1_2_N "	/>
		<route	id = "rou_52" edges ="edg_3_1_N edg_2_1_N edg_1_1_E edg_1_2_W edg_1_1_S edg_2_1_N edg_1_1_W "	/>
		<route	id = "rou_53" edges ="edg_3_1_N edg_2_1_E edg_2_2_N edg_1_2_W edg_1_1_N "	/>
		<route	id = "rou_54" edges ="edg_2_0_E edg_2_1_E edg_2_2_W edg_2_1_W "	/>
		<route	id = "rou_55" edges ="edg_1_3_W edg_1_2_W edg_1_1_W "	/>
		<route	id = "rou_56" edges ="edg_1_3_W edg_1_2_S edg_2_2_S "	/>
		<route	id = "rou_57" edges ="edg_2_0_E edg_2_1_N edg_1_1_S edg_2_1_E edg_2_2_E "	/>
		<route	id = "rou_58" edges ="edg_2_3_W edg_2_2_S "	/>
		<route	id = "rou_59" edges ="edg_3_2_N edg_2_2_N edg_1_2_W edg_1_1_W "	/>
		<route	id = "rou_60" edges ="edg_3_1_N edg_2_1_S "	/>
		<route	id = "rou_61" edges ="edg_3_2_N edg_2_2_S "	/>
		<route	id = "rou_62" edges ="edg_2_3_W edg_2_2_E "	/>
		<route	id = "rou_63" edges ="edg_0_1_S edg_1_1_W "	/>
		<route	id = "rou_64" edges ="edg_1_3_W edg_1_2_W edg_1_1_N "	/>
		<route	id = "rou_65" edges ="edg_0_2_S edg_1_2_E "	/>
		<route	id = "rou_66" edges ="edg_2_0_E edg_2_1_S "	/>
		<route	id = "rou_67" edges ="edg_3_1_N edg_2_1_N edg_1_1_W "	/>
		<route	id = "rou_68" edges ="edg_1_0_E edg_1_1_W "	/>
		<route	id = "rou_69" edges ="edg_1_3_W edg_1_2_S edg_2_2_E "	/>
		<route	id = "rou_70" edges ="edg_0_1_S edg_1_1_W "	/>
		<route	id = "rou_71" edges ="edg_1_3_W edg_1_2_S edg_2_2_W edg_2_1_N edg_1_1_S edg_2_1_W "	/>
		<route	id = "rou_72" edges ="edg_2_3_W edg_2_2_S "	/>
		<route	id = "rou_73" edges ="edg_1_0_E edg_1_1_E edg_1_2_E "	/>
		<route	id = "rou_74" edges ="edg_2_0_E edg_2_1_W "	/>
		<route	id = "rou_75" edges ="edg_0_2_S edg_1_2_W edg_1_1_W "	/>
		<route	id = "rou_76" edges ="edg_0_1_S edg_1_1_W "	/>
		<route	id = "rou_77" edges ="edg_0_1_S edg_1_1_W "	/>
		<route	id = "rou_78" edges ="edg_3_2_N edg_2_2_S "	/>
		<route	id = "rou_79" edges ="edg_3_1_N edg_2_1_W "	/>
		<route	id = "rou_80" edges ="edg_0_1_S edg_1_1_W "	/>
		<route	id = "rou_81" edges ="edg_3_2_N edg_2_2_E "	/>
		<route	id = "rou_82" edges ="edg_2_3_W edg_2_2_N edg_1_2_E "	/>
		<route	id = "rou_83" edges ="edg_0_2_S edg_1_2_E "	/>
		<route	id = "rou_84" edges ="edg_0_2_S edg_1_2_S edg_2_2_S "	/>
		<route	id = "rou_85" edges ="edg_2_3_W edg_2_2_N edg_1_2_W edg_1_1_S edg_2_1_W "	/>
		<route	id = "rou_86" edges ="edg_0_1_S edg_1_1_S edg_2_1_W "	/>
		<route	id = "rou_87" edges ="edg_1_0_E edg_1_1_E edg_1_2_N "	/>
		<route	id = "rou_88" edges ="edg_0_2_S edg_1_2_S edg_2_2_S "	/>
		<route	id = "rou_89" edges ="edg_0_1_S edg_1_1_S edg_2_1_N edg_1_1_W "	/>
		<route	id = "rou_90" edges ="edg_1_3_W edg_1_2_N "	/>
		<route	id = "rou_91" edges ="edg_3_2_N edg_2_2_E "	/>
		<route	id = "rou_92" edges ="edg_3_2_N edg_2_2_W edg_2_1_S "	/>
		<route	id = "rou_93" edges ="edg_3_1_N edg_2_1_W "	/>
		<route	id = "rou_94" edges ="edg_2_3_W edg_2_2_E "	/>
		<route	id = "rou_95" edges ="edg_3_2_N edg_2_2_W edg_2_1_W "	/>
		<route	id = "rou_96" edges ="edg_0_1_S edg_1_1_E edg_1_2_S edg_2_2_N edg_1_2_N "	/>
		<route	id = "rou_97" edges ="edg_0_1_S edg_1_1_N "	/>
		<route	id = "rou_98" edges ="edg_0_1_S edg_1_1_S edg_2_1_S "	/>
		<route	id = "rou_99" edges ="edg_3_1_N edg_2_1_W "	/>
		<route	id = "rou_100" edges ="edg_3_1_N edg_2_1_N edg_1_1_E edg_1_2_W edg_1_1_E edg_1_2_W edg_1_1_S edg_2_1_N edg_1_1_W "	/>
		<route	id = "rou_101" edges ="edg_1_0_E edg_1_1_W "	/>
		<route	id = "rou_102" edges ="edg_3_2_N edg_2_2_W edg_2_1_N edg_1_1_N "	/>
		<route	id = "rou_103" edges ="edg_1_0_E edg_1_1_E edg_1_2_N "	/>
		<route	id = "rou_104" edges ="edg_0_1_S edg_1_1_N "	/>
		<route	id = "rou_105" edges ="edg_3_2_N edg_2_2_E "	/>
		<route	id = "rou_106" edges ="edg_1_0_E edg_1_1_S edg_2_1_E edg_2_2_E "	/>
		<route	id = "rou_107" edges ="edg_2_3_W edg_2_2_S "	/>
		<route	id = "rou_108" edges ="edg_1_0_E edg_1_1_N "	/>
		<route	id = "rou_109" edges ="edg_3_1_N edg_2_1_E edg_2_2_E "	/>
		<route	id = "rou_110" edges ="edg_2_3_W edg_2_2_N edg_1_2_W edg_1_1_N "	/>
		<route	id = "rou_111" edges ="edg_3_1_N edg_2_1_S "	/>
		<route	id = "rou_112" edges ="edg_1_0_E edg_1_1_W "	/>
		<route	id = "rou_113" edges ="edg_2_0_E edg_2_1_E edg_2_2_S "	/>
		<route	id = "rou_114" edges ="edg_0_2_S edg_1_2_N "	/>
		<route	id = "rou_115" edges ="edg_3_1_N edg_2_1_N edg_1_1_E edg_1_2_W edg_1_1_N "	/>
		<route	id = "rou_116" edges ="edg_2_3_W edg_2_2_E "	/>
		<route	id = "rou_117" edges ="edg_1_0_E edg_1_1_E edg_1_2_N "	/>
		<route	id = "rou_118" edges ="edg_1_0_E edg_1_1_E edg_1_2_S edg_2_2_E "	/>
		<route	id = "rou_119" edges ="edg_3_2_N edg_2_2_N edg_1_2_W edg_1_1_N "	/>
		<route	id = "rou_120" edges ="edg_0_2_S edg_1_2_N "	/>
		<route	id = "rou_121" edges ="edg_3_1_N edg_2_1_E edg_2_2_N edg_1_2_E "	/>
		<route	id = "rou_122" edges ="edg_0_1_S edg_1_1_N "	/>
		<route	id = "rou_123" edges ="edg_1_0_E edg_1_1_N "	/>
		<route	id = "rou_124" edges ="edg_1_3_W edg_1_2_E "	/>
		<route	id = "rou_125" edges ="edg_3_1_N edg_2_1_E edg_2_2_E "	/>
		<route	id = "rou_126" edges ="edg_0_1_S edg_1_1_W "	/>
		<route	id = "rou_127" edges ="edg_0_2_S edg_1_2_N "	/>
		<route	id = "rou_128" edges ="edg_2_0_E edg_2_1_N edg_1_1_W "	/>
		<route	id = "rou_129" edges ="edg_0_2_S edg_1_2_N "	/>
		<route	id = "rou_130" edges ="edg_1_3_W edg_1_2_S edg_2_2_N edg_1_2_N "	/>
		<route	id = "rou_131" edges ="edg_3_2_N edg_2_2_S "	/>
		<route	id = "rou_132" edges ="edg_0_2_S edg_1_2_E "	/>
		<route	id = "rou_133" edges ="edg_2_3_W edg_2_2_W edg_2_1_W "	/>
		<route	id = "rou_134" edges ="edg_1_3_W edg_1_2_N "	/>
		<route	id = "rou_135" edges ="edg_1_0_E edg_1_1_S edg_2_1_E edg_2_2_N edg_1_2_W edg_1_1_W "	/>
		<route	id = "rou_136" edges ="edg_0_1_S edg_1_1_E edg_1_2_S edg_2_2_W edg_2_1_W "	/>
		<route	id = "rou_137" edges ="edg_1_3_W edg_1_2_E "	/>
		<route	id = "rou_138" edges ="edg_2_0_E edg_2_1_N edg_1_1_S edg_2_1_E edg_2_2_W edg_2_1_E edg_2_2_S "	/>
		<route	id = "rou_139" edges ="edg_0_1_S edg_1_1_W "	/>
		<route	id = "rou_140" edges ="edg_1_3_W edg_1_2_N "	/>
		<route	id = "rou_141" edges ="edg_1_0_E edg_1_1_E edg_1_2_W edg_1_1_W "	/>
		<route	id = "rou_142" edges ="edg_0_2_S edg_1_2_N "	/>
		<route	id = "rou_143" edges ="edg_3_1_N edg_2_1_S "	/>
		<route	id = "rou_144" edges ="edg_0_1_S edg_1_1_S edg_2_1_W "	/>
		<route	id = "rou_145" edges ="edg_2_3_W edg_2_2_W edg_2_1_S "	/>
		<route	id = "rou_146" edges ="edg_0_1_S edg_1_1_N "	/>
		<route	id = "rou_147" edges ="edg_3_2_N edg_2_2_W edg_2_1_W "	/>
		<route	id = "rou_148" edges ="edg_2_3_W edg_2_2_W edg_2_1_E edg_2_2_N edg_1_2_E "	/>
		<route	id = "rou_149" edges ="edg_1_0_E edg_1_1_S edg_2_1_N edg_1_1_S edg_2_1_W "	/>
		<route	id = "rou_150" edges ="edg_3_2_N edg_2_2_W edg_2_1_N edg_1_1_N "	/>
		<route	id = "rou_151" edges ="edg_0_1_S edg_1_1_E edg_1_2_N "	/>
		<route	id = "rou_152" edges ="edg_1_3_W edg_1_2_N "	/>
		<route	id = "rou_153" edges ="edg_2_0_E edg_2_1_W "	/>
		<route	id = "rou_154" edges ="edg_2_3_W edg_2_2_E "	/>
		<route	id = "rou_155" edges ="edg_1_0_E edg_1_1_E edg_1_2_S edg_2_2_S "	/>
		<route	id = "rou_156" edges ="edg_2_3_W edg_2_2_S "	/>
		<route	id = "rou_157" edges ="edg_2_3_W edg_2_2_S "	/>
		<route	id = "rou_158" edges ="edg_0_1_S edg_1_1_E edg_1_2_S edg_2_2_N edg_1_2_E "	/>
		<route	id = "rou_159" edges ="edg_2_3_W edg_2_2_N edg_1_2_S edg_2_2_N edg_1_2_W edg_1_1_N "	/>
		<route	id = "rou_160" edges ="edg_1_0_E edg_1_1_W "	/>
		<route	id = "rou_161" edges ="edg_1_0_E edg_1_1_E edg_1_2_E "	/>
		<route	id = "rou_162" edges ="edg_1_0_E edg_1_1_W "	/>
		<route	id = "rou_163" edges ="edg_0_2_S edg_1_2_S edg_2_2_S "	/>
		<route	id = "rou_164" edges ="edg_1_3_W edg_1_2_N "	/>
		<route	id = "rou_165" edges ="edg_2_3_W edg_2_2_E "	/>
		<route	id = "rou_166" edges ="edg_2_3_W edg_2_2_E "	/>
		<route	id = "rou_167" edges ="edg_2_0_E edg_2_1_W "	/>
		<route	id = "rou_168" edges ="edg_3_1_N edg_2_1_N edg_1_1_S edg_2_1_N edg_1_1_N "	/>
		<route	id = "rou_169" edges ="edg_1_3_W edg_1_2_S edg_2_2_N edg_1_2_S edg_2_2_W edg_2_1_S "	/>
		<route	id = "rou_170" edges ="edg_3_2_N edg_2_2_N edg_1_2_E "	/>
		<route	id = "rou_171" edges ="edg_2_0_E edg_2_1_N edg_1_1_E edg_1_2_W edg_1_1_S edg_2_1_N edg_1_1_E edg_1_2_E "	/>
		<route	id = "rou_172" edges ="edg_1_0_E edg_1_1_E edg_1_2_S edg_2_2_W edg_2_1_N edg_1_1_S edg_2_1_N edg_1_1_E edg_1_2_W edg_1_1_E edg_1_2_E "	/>
		<route	id = "rou_173" edges ="edg_3_1_N edg_2_1_N edg_1_1_N "	/>
		<route	id = "rou_174" edges ="edg_1_0_E edg_1_1_S edg_2_1_E edg_2_2_W edg_2_1_W "	/>
		<route	id = "rou_175" edges ="edg_2_0_E edg_2_1_E edg_2_2_W edg_2_1_W "	/>
		<route	id = "rou_176" edges ="edg_0_2_S edg_1_2_S edg_2_2_N edg_1_2_W edg_1_1_W "	/>
		<route	id = "rou_177" edges ="edg_3_1_N edg_2_1_N edg_1_1_W "	/>
		<route	id = "rou_178" edges ="edg_3_2_N edg_2_2_W edg_2_1_S "	/>
		<route	id = "rou_179" edges ="edg_0_2_S edg_1_2_N "	/>
		<route	id = "rou_180" edges ="edg_2_0_E edg_2_1_S "	/>
		<route	id = "rou_181" edges ="edg_0_1_S edg_1_1_W "	/>
		<route	id = "rou_182" edges ="edg_2_0_E edg_2_1_S "	/>
		<route	id = "rou_183" edges ="edg_2_3_W edg_2_2_W edg_2_1_N edg_1_1_W "	/>
		<route	id = "rou_184" edges ="edg_0_1_S edg_1_1_E edg_1_2_S edg_2_2_W edg_2_1_W "	/>
		<route	id = "rou_185" edges ="edg_1_0_E edg_1_1_W "	/>
		<route	id = "rou_186" edges ="edg_3_1_N edg_2_1_N edg_1_1_S edg_2_1_S "	/>
		<route	id = "rou_187" edges ="edg_3_1_N edg_2_1_E edg_2_2_S "	/>
		<route	id = "rou_188" edges ="edg_0_1_S edg_1_1_E edg_1_2_E "	/>
		<route	id = "rou_189" edges ="edg_0_2_S edg_1_2_W edg_1_1_N "	/>
		<route	id = "rou_190" edges ="edg_1_3_W edg_1_2_N "	/>
		<route	id = "rou_191" edges ="edg_1_3_W edg_1_2_N "	/>
		<route	id = "rou_192" edges ="edg_0_2_S edg_1_2_E "	/>
		<route	id = "rou_193" edges ="edg_0_2_S edg_1_2_N "	/>
		<route	id = "rou_194" edges ="edg_1_0_E edg_1_1_E edg_1_2_E "	/>
		<route	id = "rou_195" edges ="edg_2_0_E edg_2_1_N edg_1_1_N "	/>
		<route	id = "rou_196" edges ="edg_1_3_W edg_1_2_N "	/>
		<route	id = "rou_197" edges ="edg_1_3_W edg_1_2_E "	/>
		<route	id = "rou_198" edges ="edg_3_2_N edg_2_2_N edg_1_2_N "	/>
		<route	id = "rou_199" edges ="edg_2_3_W edg_2_2_S "	/>
		<route	id = "rou_200" edges ="edg_1_3_W edg_1_2_E "	/>
		<route	id = "rou_201" edges ="edg_0_2_S edg_1_2_E "	/>
		<route	id = "rou_202" edges ="edg_3_1_N edg_2_1_S "	/>
		<route	id = "rou_203" edges ="edg_1_3_W edg_1_2_W edg_1_1_N "	/>
		<route	id = "rou_204" edges ="edg_3_1_N edg_2_1_N edg_1_1_N "	/>
		<route	id = "rou_205" edges ="edg_1_0_E edg_1_1_E edg_1_2_N "	/>
		<route	id = "rou_206" edges ="edg_2_0_E edg_2_1_N edg_1_1_S edg_2_1_W "	/>
		<route	id = "rou_207" edges ="edg_1_0_E edg_1_1_S edg_2_1_S "	/>
		<route	id = "rou_208" edges ="edg_0_2_S edg_1_2_W edg_1_1_S edg_2_1_N edg_1_1_N "	/>
		<route	id = "rou_209" edges ="edg_0_1_S edg_1_1_N "	/>
		<route	id = "rou_210" edges ="edg_2_3_W edg_2_2_E "	/>
		<route	id = "rou_211" edges ="edg_2_3_W edg_2_2_E "	/>
		<route	id = "rou_212" edges ="edg_2_3_W edg_2_2_E "	/>
		<route	id = "rou_213" edges ="edg_1_3_W edg_1_2_N "	/>
		<route	id = "rou_214" edges ="edg_3_2_N edg_2_2_W edg_2_1_N edg_1_1_W "	/>
		<route	id = "rou_215" edges ="edg_1_3_W edg_1_2_N "	/>
		<route	id = "rou_216" edges ="edg_1_0_E edg_1_1_E edg_1_2_E "	/>
		<route	id = "rou_217" edges ="edg_3_2_N edg_2_2_W edg_2_1_N edg_1_1_E edg_1_2_W edg_1_1_E edg_1_2_E "	/>
		<route	id = "rou_218" edges ="edg_3_1_N edg_2_1_N edg_1_1_W "	/>
		<route	id = "rou_219" edges ="edg_1_0_E edg_1_1_S edg_2_1_W "	/>
		<route	id = "rou_220" edges ="edg_2_3_W edg_2_2_S "	/>
		<route	id = "rou_221" edges ="edg_3_2_N edg_2_2_W edg_2_1_N edg_1_1_S edg_2_1_W "	/>
		<route	id = "rou_222" edges ="edg_1_0_E edg_1_1_N "	/>
		<route	id = "rou_223" edges ="edg_0_1_S edg_1_1_W "	/>
		<route	id = "rou_224" edges ="edg_2_0_E edg_2_1_E edg_2_2_W edg_2_1_E edg_2_2_N edg_1_2_N "	/>
		<route	id = "rou_225" edges ="edg_3_1_N edg_2_1_W "	/>
		<route	id = "rou_226" edges ="edg_2_0_E edg_2_1_W "	/>
		<route	id = "rou_227" edges ="edg_0_2_S edg_1_2_N "	/>
		<route	id = "rou_228" edges ="edg_1_3_W edg_1_2_E "	/>
		<route	id = "rou_229" edges ="edg_3_2_N edg_2_2_S "	/>
		<route	id = "rou_230" edges ="edg_1_0_E edg_1_1_E edg_1_2_N "	/>
		<route	id = "rou_231" edges ="edg_1_3_W edg_1_2_S edg_2_2_W edg_2_1_W "	/>
		<route	id = "rou_232" edges ="edg_2_0_E edg_2_1_E edg_2_2_S "	/>
		<route	id = "rou_233" edges ="edg_3_1_N edg_2_1_S "	/>
		<route	id = "rou_234" edges ="edg_3_1_N edg_2_1_N edg_1_1_E edg_1_2_E "	/>
		<route	id = "rou_235" edges ="edg_1_3_W edg_1_2_N "	/>
		<route	id = "rou_236" edges ="edg_0_1_S edg_1_1_N "	/>
		<route	id = "rou_237" edges ="edg_3_2_N edg_2_2_E "	/>
		<route	id = "rou_238" edges ="edg_0_2_S edg_1_2_S edg_2_2_S "	/>
		<route	id = "rou_239" edges ="edg_1_0_E edg_1_1_S edg_2_1_S "	/>
		<route	id = "rou_240" edges ="edg_1_0_E edg_1_1_E edg_1_2_W edg_1_1_S edg_2_1_W "	/>
		<route	id = "rou_241" edges ="edg_0_2_S edg_1_2_N "	/>
		<route	id = "rou_242" edges ="edg_0_2_S edg_1_2_N "	/>
		<route	id = "rou_243" edges ="edg_3_1_N edg_2_1_E edg_2_2_N edg_1_2_E "	/>
		<route	id = "rou_244" edges ="edg_2_0_E edg_2_1_S "	/>
		<route	id = "rou_245" edges ="edg_1_0_E edg_1_1_S edg_2_1_W "	/>
		<route	id = "rou_246" edges ="edg_0_1_S edg_1_1_W "	/>
		<route	id = "rou_247" edges ="edg_2_3_W edg_2_2_W edg_2_1_S "	/>
		<route	id = "rou_248" edges ="edg_0_1_S edg_1_1_S edg_2_1_S "	/>
		<route	id = "rou_249" edges ="edg_2_3_W edg_2_2_E "	/>
		<route	id = "rou_250" edges ="edg_0_1_S edg_1_1_W "	/>
		<route	id = "rou_251" edges ="edg_2_3_W edg_2_2_S "	/>
		<route	id = "rou_252" edges ="edg_0_1_S edg_1_1_N "	/>
		<route	id = "rou_253" edges ="edg_3_1_N edg_2_1_W "	/>
		<route	id = "rou_254" edges ="edg_1_3_W edg_1_2_S edg_2_2_N edg_1_2_W edg_1_1_N "	/>
		<route	id = "rou_255" edges ="edg_3_2_N edg_2_2_W edg_2_1_S "	/>
		<route	id = "rou_256" edges ="edg_3_1_N edg_2_1_W "	/>
		<route	id = "rou_257" edges ="edg_3_2_N edg_2_2_N edg_1_2_S edg_2_2_W edg_2_1_N edg_1_1_E edg_1_2_N "	/>
		<route	id = "rou_258" edges ="edg_3_1_N edg_2_1_N edg_1_1_W "	/>
		<route	id = "rou_259" edges ="edg_1_3_W edg_1_2_W edg_1_1_W "	/>
		<route	id = "rou_260" edges ="edg_0_1_S edg_1_1_S edg_2_1_E edg_2_2_S "	/>
		<route	id = "rou_261" edges ="edg_2_3_W edg_2_2_E "	/>
		<route	id = "rou_262" edges ="edg_2_3_W edg_2_2_N edg_1_2_E "	/>
		<route	id = "rou_263" edges ="edg_3_2_N edg_2_2_W edg_2_1_E edg_2_2_S "	/>
		<route	id = "rou_264" edges ="edg_3_1_N edg_2_1_S "	/>
		<route	id = "rou_265" edges ="edg_3_2_N edg_2_2_N edg_1_2_N "	/>
		<route	id = "rou_266" edges ="edg_2_0_E edg_2_1_S "	/>
		<route	id = "rou_267" edges ="edg_3_1_N edg_2_1_S "	/>
		<route	id = "rou_268" edges ="edg_1_3_W edg_1_2_S edg_2_2_W edg_2_1_S "	/>
		<route	id = "rou_269" edges ="edg_3_1_N edg_2_1_N edg_1_1_S edg_2_1_W "	/>
		<route	id = "rou_270" edges ="edg_0_2_S edg_1_2_W edg_1_1_N "	/>
		<route	id = "rou_271" edges ="edg_2_3_W edg_2_2_S "	/>
		<route	id = "rou_272" edges ="edg_3_2_N edg_2_2_N edg_1_2_W edg_1_1_S edg_2_1_W "	/>
		<route	id = "rou_273" edges ="edg_3_2_N edg_2_2_S "	/>
		<route	id = "rou_274" edges ="edg_3_1_N edg_2_1_N edg_1_1_S edg_2_1_S "	/>
		<route	id = "rou_275" edges ="edg_2_3_W edg_2_2_N edg_1_2_E "	/>
		<route	id = "rou_276" edges ="edg_2_3_W edg_2_2_E "	/>
		<route	id = "rou_277" edges ="edg_0_1_S edg_1_1_E edg_1_2_S edg_2_2_N edg_1_2_N "	/>
		<route	id = "rou_278" edges ="edg_3_2_N edg_2_2_E "	/>
		<route	id = "rou_279" edges ="edg_0_1_S edg_1_1_E edg_1_2_E "	/>
		<route	id = "rou_280" edges ="edg_3_2_N edg_2_2_S "	/>
		<route	id = "rou_281" edges ="edg_2_0_E edg_2_1_S "	/>
		<route	id = "rou_282" edges ="edg_1_3_W edg_1_2_W edg_1_1_N "	/>
		<route	id = "rou_283" edges ="edg_3_2_N edg_2_2_S "	/>
		<route	id = "rou_284" edges ="edg_0_1_S edg_1_1_E edg_1_2_S edg_2_2_S "	/>
		<route	id = "rou_285" edges ="edg_2_0_E edg_2_1_S "	/>
		<route	id = "rou_286" edges ="edg_1_3_W edg_1_2_S edg_2_2_W edg_2_1_E edg_2_2_W edg_2_1_E edg_2_2_N edg_1_2_N "	/>
		<route	id = "rou_287" edges ="edg_0_2_S edg_1_2_S edg_2_2_N edg_1_2_N "	/>
		<route	id = "rou_288" edges ="edg_3_2_N edg_2_2_E "	/>
		<route	id = "rou_289" edges ="edg_1_0_E edg_1_1_W "	/>
		<route	id = "rou_290" edges ="edg_1_3_W edg_1_2_N "	/>
		<route	id = "rou_291" edges ="edg_1_3_W edg_1_2_E "	/>
		<route	id = "rou_292" edges ="edg_3_1_N edg_2_1_E edg_2_2_E "	/>
		<route	id = "rou_293" edges ="edg_3_1_N edg_2_1_S "	/>
		<route	id = "rou_294" edges ="edg_3_2_N edg_2_2_E "	/>
		<route	id = "rou_295" edges ="edg_0_2_S edg_1_2_W edg_1_1_N "	/>
		<route	id = "rou_296" edges ="edg_0_2_S edg_1_2_N "	/>
		<route	id = "rou_297" edges ="edg_0_2_S edg_1_2_N "	/>
		<route	id = "rou_298" edges ="edg_1_0_E edg_1_1_E edg_1_2_S edg_2_2_E "	/>
		<route	id = "rou_299" edges ="edg_2_3_W edg_2_2_S "	/>
		<route	id = "rou_300" edges ="edg_3_2_N edg_2_2_N edg_1_2_E "	/>
		<route	id = "rou_301" edges ="edg_3_1_N edg_2_1_N edg_1_1_E edg_1_2_W edg_1_1_E edg_1_2_E "	/>
		<route	id = "rou_302" edges ="edg_3_1_N edg_2_1_E edg_2_2_W edg_2_1_S "	/>
		<route	id = "rou_303" edges ="edg_1_3_W edg_1_2_W edg_1_1_S edg_2_1_N edg_1_1_E edg_1_2_W edg_1_1_E edg_1_2_S edg_2_2_N edg_1_2_N "	/>
		<route	id = "rou_304" edges ="edg_0_1_S edg_1_1_W "	/>
		<route	id = "rou_305" edges ="edg_1_0_E edg_1_1_S edg_2_1_N edg_1_1_S edg_2_1_E edg_2_2_E "	/>
		<route	id = "rou_306" edges ="edg_1_3_W edg_1_2_S edg_2_2_W edg_2_1_S "	/>
		<route	id = "rou_307" edges ="edg_2_3_W edg_2_2_N edg_1_2_W edg_1_1_N "	/>
		<route	id = "rou_308" edges ="edg_1_0_E edg_1_1_N "	/>
		<route	id = "rou_309" edges ="edg_2_0_E edg_2_1_S "	/>
		<route	id = "rou_310" edges ="edg_0_2_S edg_1_2_E "	/>
		<route	id = "rou_311" edges ="edg_0_2_S edg_1_2_E "	/>
		<route	id = "rou_312" edges ="edg_1_3_W edg_1_2_S edg_2_2_E "	/>
		<route	id = "rou_313" edges ="edg_1_0_E edg_1_1_E edg_1_2_E "	/>
		<route	id = "rou_314" edges ="edg_1_3_W edg_1_2_N "	/>
		<route	id = "rou_315" edges ="edg_3_1_N edg_2_1_N edg_1_1_W "	/>
		<route	id = "rou_316" edges ="edg_2_3_W edg_2_2_W edg_2_1_E edg_2_2_S "	/>
		<route	id = "rou_317" edges ="edg_2_3_W edg_2_2_E "	/>
		<route	id = "rou_318" edges ="edg_1_3_W edg_1_2_W edg_1_1_S edg_2_1_S "	/>
		<route	id = "rou_319" edges ="edg_1_0_E edg_1_1_S edg_2_1_N edg_1_1_S edg_2_1_N edg_1_1_N "	/>
		<route	id = "rou_320" edges ="edg_2_3_W edg_2_2_S "	/>
		<route	id = "rou_321" edges ="edg_3_2_N edg_2_2_E "	/>
		<route	id = "rou_322" edges ="edg_2_3_W edg_2_2_N edg_1_2_E "	/>
		<route	id = "rou_323" edges ="edg_1_0_E edg_1_1_N "	/>
		<route	id = "rou_324" edges ="edg_2_3_W edg_2_2_W edg_2_1_E edg_2_2_E "	/>
		<route	id = "rou_325" edges ="edg_3_1_N edg_2_1_W "	/>
		<route	id = "rou_326" edges ="edg_3_2_N edg_2_2_E "	/>
		<route	id = "rou_327" edges ="edg_1_0_E edg_1_1_E edg_1_2_W edg_1_1_S edg_2_1_W "	/>
		<route	id = "rou_328" edges ="edg_0_1_S edg_1_1_E edg_1_2_N "	/>
		<route	id = "rou_329" edges ="edg_2_0_E edg_2_1_N edg_1_1_E edg_1_2_W edg_1_1_N "	/>
		<route	id = "rou_330" edges ="edg_2_0_E edg_2_1_E edg_2_2_N edg_1_2_N "	/>
		<route	id = "rou_331" edges ="edg_3_1_N edg_2_1_N edg_1_1_S edg_2_1_S "	/>
		<route	id = "rou_332" edges ="edg_0_2_S edg_1_2_W edg_1_1_S edg_2_1_E edg_2_2_N edg_1_2_W edg_1_1_E edg_1_2_W edg_1_1_N "	/>
		<route	id = "rou_333" edges ="edg_2_0_E edg_2_1_W "	/>
		<route	id = "rou_334" edges ="edg_2_3_W edg_2_2_N edg_1_2_W edg_1_1_S edg_2_1_N edg_1_1_W "	/>
		<route	id = "rou_335" edges ="edg_3_2_N edg_2_2_S "	/>
		<route	id = "rou_336" edges ="edg_0_2_S edg_1_2_E "	/>
		<route	id = "rou_337" edges ="edg_3_2_N edg_2_2_S "	/>
		<route	id = "rou_338" edges ="edg_2_3_W edg_2_2_W edg_2_1_W "	/>
		<route	id = "rou_339" edges ="edg_2_0_E edg_2_1_E edg_2_2_W edg_2_1_E edg_2_2_N edg_1_2_W edg_1_1_E edg_1_2_E "	/>
		<route	id = "rou_340" edges ="edg_3_1_N edg_2_1_N edg_1_1_N "	/>
		<route	id = "rou_341" edges ="edg_1_3_W edg_1_2_S edg_2_2_W edg_2_1_E edg_2_2_E "	/>
		<route	id = "rou_342" edges ="edg_1_0_E edg_1_1_E edg_1_2_W edg_1_1_S edg_2_1_S "	/>
		<route	id = "rou_343" edges ="edg_2_3_W edg_2_2_E "	/>
		<route	id = "rou_344" edges ="edg_2_0_E edg_2_1_N edg_1_1_W "	/>
		<route	id = "rou_345" edges ="edg_2_3_W edg_2_2_E "	/>
		<route	id = "rou_346" edges ="edg_2_0_E edg_2_1_N edg_1_1_W "	/>
		<route	id = "rou_347" edges ="edg_2_3_W edg_2_2_E "	/>
		<route	id = "rou_348" edges ="edg_2_3_W edg_2_2_W edg_2_1_E edg_2_2_W edg_2_1_S "	/>
		<route	id = "rou_349" edges ="edg_2_3_W edg_2_2_W edg_2_1_E edg_2_2_N edg_1_2_N "	/>
		<route	id = "rou_350" edges ="edg_0_1_S edg_1_1_W "	/>
		<route	id = "rou_351" edges ="edg_0_2_S edg_1_2_N "	/>
		<route	id = "rou_352" edges ="edg_0_1_S edg_1_1_N "	/>
		<route	id = "rou_353" edges ="edg_2_3_W edg_2_2_S "	/>
		<route	id = "rou_354" edges ="edg_0_1_S edg_1_1_N "	/>
		<route	id = "rou_355" edges ="edg_1_3_W edg_1_2_N "	/>
		<route	id = "rou_356" edges ="edg_0_2_S edg_1_2_E "	/>
		<route	id = "rou_357" edges ="edg_0_1_S edg_1_1_S edg_2_1_N edg_1_1_N "	/>
		<route	id = "rou_358" edges ="edg_3_1_N edg_2_1_S "	/>
		<route	id = "rou_359" edges ="edg_2_3_W edg_2_2_S "	/>
		<route	id = "rou_360" edges ="edg_0_2_S edg_1_2_E "	/>
		<route	id = "rou_361" edges ="edg_0_1_S edg_1_1_N "	/>
		<route	id = "rou_362" edges ="edg_2_3_W edg_2_2_E "	/>
		<route	id = "rou_363" edges ="edg_1_0_E edg_1_1_N "	/>
		<route	id = "rou_364" edges ="edg_1_3_W edg_1_2_S edg_2_2_W edg_2_1_S "	/>
		<route	id = "rou_365" edges ="edg_3_1_N edg_2_1_S "	/>
		<route	id = "rou_366" edges ="edg_3_1_N edg_2_1_W "	/>
		<route	id = "rou_367" edges ="edg_2_3_W edg_2_2_E "	/>
		<route	id = "rou_368" edges ="edg_3_1_N edg_2_1_N edg_1_1_W "	/>
		<route	id = "rou_369" edges ="edg_3_1_N edg_2_1_W "	/>
		<route	id = "rou_370" edges ="edg_2_3_W edg_2_2_E "	/>
		<route	id = "rou_371" edges ="edg_1_0_E edg_1_1_W "	/>
		<route	id = "rou_372" edges ="edg_1_3_W edg_1_2_S edg_2_2_S "	/>
		<route	id = "rou_373" edges ="edg_1_0_E edg_1_1_S edg_2_1_N edg_1_1_S edg_2_1_E edg_2_2_S "	/>
		<route	id = "rou_374" edges ="edg_0_1_S edg_1_1_S edg_2_1_W "	/>
		<route	id = "rou_375" edges ="edg_0_2_S edg_1_2_E "	/>
		<route	id = "rou_376" edges ="edg_1_0_E edg_1_1_S edg_2_1_S "	/>
		<route	id = "rou_377" edges ="edg_3_2_N edg_2_2_E "	/>
		<route	id = "rou_378" edges ="edg_2_3_W edg_2_2_W edg_2_1_S "	/>
		<route	id = "rou_379" edges ="edg_3_1_N edg_2_1_S "	/>
		<route	id = "rou_380" edges ="edg_0_2_S edg_1_2_N "	/>
		<route	id = "rou_381" edges ="edg_3_2_N edg_2_2_S "	/>
		<route	id = "rou_382" edges ="edg_0_1_S edg_1_1_E edg_1_2_N "	/>
		<route	id = "rou_383" edges ="edg_0_1_S edg_1_1_S edg_2_1_S "	/>
		<route	id = "rou_384" edges ="edg_0_2_S edg_1_2_E "	/>
		<route	id = "rou_385" edges ="edg_0_1_S edg_1_1_S edg_2_1_N edg_1_1_N "	/>
		<route	id = "rou_386" edges ="edg_3_2_N edg_2_2_E "	/>
		<route	id = "rou_387" edges ="edg_0_2_S edg_1_2_E "	/>
		<route	id = "rou_388" edges ="edg_2_3_W edg_2_2_W edg_2_1_W "	/>
		<route	id = "rou_389" edges ="edg_2_3_W edg_2_2_N edg_1_2_S edg_2_2_E "	/>
		<route	id = "rou_390" edges ="edg_0_2_S edg_1_2_W edg_1_1_W "	/>
		<route	id = "rou_391" edges ="edg_0_1_S edg_1_1_S edg_2_1_W "	/>
		<route	id = "rou_392" edges ="edg_1_3_W edg_1_2_N "	/>
		<route	id = "rou_393" edges ="edg_0_2_S edg_1_2_W edg_1_1_N "	/>
		<route	id = "rou_394" edges ="edg_2_3_W edg_2_2_S "	/>
		<route	id = "rou_395" edges ="edg_0_1_S edg_1_1_W "	/>
		<route	id = "rou_396" edges ="edg_3_2_N edg_2_2_N edg_1_2_S edg_2_2_E "	/>
		<route	id = "rou_397" edges ="edg_3_1_N edg_2_1_E edg_2_2_E "	/>
		<route	id = "rou_398" edges ="edg_3_2_N edg_2_2_E "	/>
		<route	id = "rou_399" edges ="edg_3_1_N edg_2_1_S "	/>
		<route	id = "rou_400" edges ="edg_3_2_N edg_2_2_E "	/>
		<route	id = "rou_401" edges ="edg_1_0_E edg_1_1_S edg_2_1_S "	/>
		<route	id = "rou_402" edges ="edg_3_1_N edg_2_1_E edg_2_2_N edg_1_2_E "	/>
		<route	id = "rou_403" edges ="edg_1_3_W edg_1_2_W edg_1_1_S edg_2_1_W "	/>
		<route	id = "rou_404" edges ="edg_1_0_E edg_1_1_E edg_1_2_N "	/>
		<route	id = "rou_405" edges ="edg_0_1_S edg_1_1_N "	/>
		<route	id = "rou_406" edges ="edg_0_1_S edg_1_1_N "	/>
		<route	id = "rou_407" edges ="edg_0_2_S edg_1_2_N "	/>
		<route	id = "rou_408" edges ="edg_1_3_W edg_1_2_E "	/>
		<route	id = "rou_409" edges ="edg_2_0_E edg_2_1_S "	/>
		<route	id = "rou_410" edges ="edg_3_1_N edg_2_1_N edg_1_1_N "	/>
		<route	id = "rou_411" edges ="edg_1_0_E edg_1_1_S edg_2_1_S "	/>
		<route	id = "rou_412" edges ="edg_3_2_N edg_2_2_E "	/>
		<route	id = "rou_413" edges ="edg_1_0_E edg_1_1_S edg_2_1_N edg_1_1_W "	/>
		<route	id = "rou_414" edges ="edg_1_0_E edg_1_1_E edg_1_2_E "	/>
		<route	id = "rou_415" edges ="edg_1_3_W edg_1_2_S edg_2_2_W edg_2_1_E edg_2_2_W edg_2_1_W "	/>
		<route	id = "rou_416" edges ="edg_3_1_N edg_2_1_E edg_2_2_S "	/>
		<route	id = "rou_417" edges ="edg_2_0_E edg_2_1_W "	/>
		<route	id = "rou_418" edges ="edg_0_2_S edg_1_2_W edg_1_1_W "	/>
		<route	id = "rou_419" edges ="edg_1_3_W edg_1_2_E "	/>
		<route	id = "rou_420" edges ="edg_1_0_E edg_1_1_E edg_1_2_E "	/>
		<route	id = "rou_421" edges ="edg_3_2_N edg_2_2_S "	/>
		<route	id = "rou_422" edges ="edg_3_2_N edg_2_2_E "	/>
		<route	id = "rou_423" edges ="edg_2_3_W edg_2_2_W edg_2_1_N edg_1_1_N "	/>
		<route	id = "rou_424" edges ="edg_1_3_W edg_1_2_E "	/>
		<route	id = "rou_425" edges ="edg_1_0_E edg_1_1_E edg_1_2_W edg_1_1_W "	/>
		<route	id = "rou_426" edges ="edg_1_3_W edg_1_2_E "	/>
		<route	id = "rou_427" edges ="edg_1_0_E edg_1_1_W "	/>
		<route	id = "rou_428" edges ="edg_2_3_W edg_2_2_W edg_2_1_S "	/>
		<route	id = "rou_429" edges ="edg_3_2_N edg_2_2_S "	/>
		<route	id = "rou_430" edges ="edg_0_2_S edg_1_2_E "	/>
		<route	id = "rou_431" edges ="edg_0_2_S edg_1_2_E "	/>
		<route	id = "rou_432" edges ="edg_0_2_S edg_1_2_E "	/>
		<route	id = "rou_433" edges ="edg_1_0_E edg_1_1_S edg_2_1_S "	/>
		<route	id = "rou_434" edges ="edg_3_2_N edg_2_2_S "	/>
		<route	id = "rou_435" edges ="edg_1_0_E edg_1_1_E edg_1_2_N "	/>
		<route	id = "rou_436" edges ="edg_1_3_W edg_1_2_N "	/>